@<TRIPOS>MOLECULE
424
 16 15 0 0 0
SMALL
GASTEIGER

@<TRIPOS>ATOM
      1 O          -0.6608    1.5956    0.8951 O.3     1  ASP1       -0.4795
      2 OD1         2.0097   -0.1567    1.1205 O.3     1  ASP1       -0.4806
      3 OXT        -1.9745    0.9718   -0.8428 O.2     1  ASP1       -0.2492
      4 OD2         2.2166    0.5661   -1.0216 O.2     1  ASP1       -0.2509
      5 N          -1.8030   -1.6945    0.0965 N.3     1  ASP1       -0.3180
      6 CA         -0.7466   -0.7448    0.3516 C.3     1  ASP1        0.1133
      7 CB          0.5034   -1.0783   -0.4675 C.3     1  ASP1        0.0702
      8 C          -1.2005    0.6760    0.0595 C.2     1  ASP1        0.3223
      9 CG          1.6556   -0.1351   -0.1914 C.2     1  ASP1        0.3067
     10 HA         -0.5154   -0.8001    1.4223 H       1  ASP1        0.0579
     11 HB1         0.2845   -1.0171   -1.5414 H       1  ASP1        0.0398
     12 HB2         0.8506   -2.0990   -0.2674 H       1  ASP1        0.0398
     13 H1         -2.0700   -1.6721   -0.8868 H       1  ASP1        0.1190
     14 H2         -2.6358   -1.4465    0.6287 H       1  ASP1        0.1190
     15 H          -0.9651    2.5044    0.6859 H       1  ASP1        0.2951
     16 HD1         2.7559    0.4521    1.3075 H       1  ASP1        0.2951
@<TRIPOS>BOND
     1     1     8    1
     2     1    15    1
     3     2     9    1
     4     2    16    1
     5     3     8    2
     6     4     9    2
     7     5     6    1
     8     5    13    1
     9     5    14    1
    10     6     7    1
    11     6     8    1
    12     6    10    1
    13     7     9    1
    14     7    11    1
    15     7    12    1
