@<TRIPOS>MOLECULE
2256
 28 28 0 0 0
SMALL
GASTEIGER

@<TRIPOS>ATOM
      1 CL         -1.4425    3.8203   -0.1067 Cl      1  UNL1       -0.0409
      2 N           2.1604    0.4365    0.1057 N.pl3   1  UNL1       -0.3110
      3 N          -2.2867   -1.0529    0.0325 N.pl3   1  UNL1       -0.3136
      4 N          -0.0528   -0.3391    0.0703 N.ar    1  UNL1       -0.1811
      5 N           0.4264    2.0113    0.0066 N.ar    1  UNL1       -0.1840
      6 N          -1.8486    1.2493   -0.0308 N.ar    1  UNL1       -0.1840
      7 C           2.7052   -0.9026    0.1660 C.3     1  UNL1        0.0177
      8 C           4.1224   -0.8435    0.7203 C.3     1  UNL1       -0.0469
      9 C           2.6783   -1.5257   -1.2236 C.3     1  UNL1       -0.0469
     10 C           0.8047    0.7107    0.0596 C.ar    1  UNL1        0.2209
     11 C          -1.9029   -2.4287    0.0879 C.3     1  UNL1        0.0090
     12 C          -1.3503    0.0036    0.0237 C.ar    1  UNL1        0.2207
     13 C          -3.1117   -3.3410    0.1242 C.3     1  UNL1       -0.0495
     14 C          -0.9020    2.2018   -0.0358 C.ar    1  UNL1        0.2286
     15 H           2.1146   -1.5229    0.8520 H       1  UNL1        0.0493
     16 H           2.7907    1.2284    0.0472 H       1  UNL1        0.1492
     17 H           4.5538   -1.8470    0.7977 H       1  UNL1        0.0247
     18 H           4.7777   -0.2407    0.0813 H       1  UNL1        0.0247
     19 H           4.1314   -0.3935    1.7193 H       1  UNL1        0.0247
     20 H           1.6576   -1.6165   -1.6090 H       1  UNL1        0.0247
     21 H           3.1148   -2.5299   -1.2060 H       1  UNL1        0.0247
     22 H           3.2474   -0.9230   -1.9406 H       1  UNL1        0.0247
     23 H          -1.2931   -2.6856   -0.7864 H       1  UNL1        0.0459
     24 H          -1.2967   -2.6169    0.9820 H       1  UNL1        0.0459
     25 H          -3.2653   -0.7918   -0.0060 H       1  UNL1        0.1489
     26 H          -3.7347   -3.1326    1.0005 H       1  UNL1        0.0245
     27 H          -3.7333   -3.2048   -0.7672 H       1  UNL1        0.0245
     28 H          -2.8002   -4.3892    0.1671 H       1  UNL1        0.0245
@<TRIPOS>BOND
     1     1    14    1
     2     2     7    1
     3     2    10    1
     4     2    16    1
     5     3    11    1
     6     3    12    1
     7     3    25    1
     8     4    10   ar
     9     4    12   ar
    10     5    10   ar
    11     5    14   ar
    12     6    12   ar
    13     6    14   ar
    14     7     8    1
    15     7     9    1
    16     7    15    1
    17     8    17    1
    18     8    18    1
    19     8    19    1
    20     9    20    1
    21     9    21    1
    22     9    22    1
    23    11    13    1
    24    11    23    1
    25    11    24    1
    26    13    26    1
    27    13    27    1
    28    13    28    1
