@<TRIPOS>MOLECULE
6623
 33 34 0 0 0
SMALL
GASTEIGER

@<TRIPOS>ATOM
      1 O           4.7037    1.7341   -0.1083 O.3     1  UNL1       -0.5068
      2 O          -4.6727    1.7597    0.1081 O.3     1  UNL1       -0.5068
      3 C           0.0069   -1.3899   -0.0004 C.3     1  UNL1        0.0151
      4 C           1.2481   -0.5641   -0.0287 C.ar    1  UNL1       -0.0372
      5 C          -1.2913   -0.5160    0.0295 C.ar    1  UNL1       -0.0372
      6 C          -0.1387   -2.3587    1.2335 C.3     1  UNL1       -0.0517
      7 C           0.0268   -2.3626   -1.2317 C.3     1  UNL1       -0.0517
      8 C           1.4704    0.3250   -1.0800 C.ar    1  UNL1       -0.0543
      9 C          -1.4471    0.3329    1.0796 C.ar    1  UNL1       -0.0543
     10 C           2.1871   -0.6812    0.9962 C.ar    1  UNL1       -0.0543
     11 C          -2.1695   -0.6691   -0.9968 C.ar    1  UNL1       -0.0543
     12 C           2.6316    1.0973   -1.1066 C.ar    1  UNL1       -0.0199
     13 C          -2.6042    1.1115    1.1063 C.ar    1  UNL1       -0.0199
     14 C           3.3485    0.0911    0.9697 C.ar    1  UNL1       -0.0199
     15 C          -3.3265    0.1096   -0.9702 C.ar    1  UNL1       -0.0199
     16 C           3.5707    0.9805   -0.0817 C.ar    1  UNL1        0.1169
     17 C          -3.5439    0.9999    0.0814 C.ar    1  UNL1        0.1169
     18 H           0.6710   -3.0984    1.2558 H       1  UNL1        0.0241
     19 H          -0.1297   -1.8287    2.1930 H       1  UNL1        0.0241
     20 H          -1.0828   -2.9165    1.1866 H       1  UNL1        0.0241
     21 H           0.9347   -2.9802   -1.2087 H       1  UNL1        0.0241
     22 H          -0.8219   -3.0575   -1.2284 H       1  UNL1        0.0241
     23 H           0.0417   -1.8360   -2.1932 H       1  UNL1        0.0241
     24 H           0.7523    0.4367   -1.8878 H       1  UNL1        0.0622
     25 H          -0.7220    0.4336    1.8792 H       1  UNL1        0.0622
     26 H           2.0643   -1.3571    1.8352 H       1  UNL1        0.0622
     27 H          -2.0556   -1.3369   -1.8389 H       1  UNL1        0.0622
     28 H           2.7926    1.7871   -1.9307 H       1  UNL1        0.0654
     29 H          -2.7610    1.8023    1.9304 H       1  UNL1        0.0654
     30 H           4.0769   -0.0041    1.7705 H       1  UNL1        0.0654
     31 H          -4.0551    0.0196   -1.7715 H       1  UNL1        0.0654
     32 H           4.6927    2.2917   -0.9051 H       1  UNL1        0.2921
     33 H          -4.6587    2.3170    0.9052 H       1  UNL1        0.2921
@<TRIPOS>BOND
     1     1    16    1
     2     1    32    1
     3     2    17    1
     4     2    33    1
     5     3     4    1
     6     3     5    1
     7     3     6    1
     8     3     7    1
     9     4     8   ar
    10     4    10   ar
    11     5     9   ar
    12     5    11   ar
    13     6    18    1
    14     6    19    1
    15     6    20    1
    16     7    21    1
    17     7    22    1
    18     7    23    1
    19     8    12   ar
    20     8    24    1
    21     9    13   ar
    22     9    25    1
    23    10    14   ar
    24    10    26    1
    25    11    15   ar
    26    11    27    1
    27    12    16   ar
    28    12    28    1
    29    13    17   ar
    30    13    29    1
    31    14    16   ar
    32    14    30    1
    33    15    17   ar
    34    15    31    1
