@<TRIPOS>MOLECULE
6626
 27 28 0 0 0
SMALL
GASTEIGER

@<TRIPOS>ATOM
      1 S          -0.0023    1.6164    0.0001 S.O2    1  UNL1        0.0251
      2 O          -0.0235    2.3472   -1.2592 O.2     1  UNL1       -0.1643
      3 O           0.0604    2.3462    1.2596 O.2     1  UNL1       -0.1643
      4 O          -4.7904   -1.8261    0.0046 O.3     1  UNL1       -0.5068
      5 O           4.7803   -1.8338   -0.0048 O.3     1  UNL1       -0.5068
      6 C          -1.4202    0.5969    0.0009 C.ar    1  UNL1        0.0938
      7 C           1.4352    0.5793   -0.0008 C.ar    1  UNL1        0.0938
      8 C          -1.9856    0.1899    1.2095 C.ar    1  UNL1       -0.0330
      9 C           1.9786    0.1869   -1.2094 C.ar    1  UNL1       -0.0330
     10 C          -1.9876    0.1896   -1.2066 C.ar    1  UNL1       -0.0330
     11 C           1.9807    0.1862    1.2066 C.ar    1  UNL1       -0.0330
     12 C          -3.1179   -0.6246    1.2106 C.ar    1  UNL1       -0.0184
     13 C           3.1096   -0.6294   -1.2107 C.ar    1  UNL1       -0.0184
     14 C          -3.1201   -0.6249   -1.2054 C.ar    1  UNL1       -0.0184
     15 C           3.1118   -0.6301    1.2053 C.ar    1  UNL1       -0.0184
     16 C          -3.6852   -1.0319    0.0033 C.ar    1  UNL1        0.1170
     17 C           3.6762   -1.0377   -0.0034 C.ar    1  UNL1        0.1170
     18 H          -1.5565    0.4903    2.1612 H       1  UNL1        0.0638
     19 H           1.5472    0.4890   -2.1585 H       1  UNL1        0.0638
     20 H          -1.5607    0.4868   -2.1604 H       1  UNL1        0.0638
     21 H           1.5515    0.4842    2.1580 H       1  UNL1        0.0638
     22 H          -3.5528   -0.9397    2.1552 H       1  UNL1        0.0654
     23 H           3.5389   -0.9415   -2.1589 H       1  UNL1        0.0654
     24 H          -3.5517   -0.9369   -2.1527 H       1  UNL1        0.0654
     25 H           3.5477   -0.9469    2.1490 H       1  UNL1        0.0654
     26 H          -5.0472   -2.0101   -0.9154 H       1  UNL1        0.2921
     27 H           5.0349   -2.0178   -0.9254 H       1  UNL1        0.2921
@<TRIPOS>BOND
     1     1     2    2
     2     1     3    2
     3     1     6    1
     4     1     7    1
     5     4    16    1
     6     4    26    1
     7     5    17    1
     8     5    27    1
     9     6     8   ar
    10     6    10   ar
    11     7     9   ar
    12     7    11   ar
    13     8    12   ar
    14     8    18    1
    15     9    13   ar
    16     9    19    1
    17    10    14   ar
    18    10    20    1
    19    11    15   ar
    20    11    21    1
    21    12    16   ar
    22    12    22    1
    23    13    17   ar
    24    13    23    1
    25    14    16   ar
    26    14    24    1
    27    15    17   ar
    28    15    25    1
