@<TRIPOS>MOLECULE
173183
 77 80 0 0 0
SMALL
GASTEIGER

@<TRIPOS>ATOM
      1 O           7.9588    0.2879    1.3194 O.3     1  UNL1       -0.3915
      2 C          -0.5026    0.2288   -0.8795 C.3     1  UNL1       -0.0259
      3 C           0.2462   -1.0008   -0.3280 C.3     1  UNL1       -0.0320
      4 C           1.7615   -0.9340   -0.5429 C.3     1  UNL1       -0.0307
      5 C           2.3260    0.3501    0.1317 C.3     1  UNL1       -0.0285
      6 C          -1.9546   -0.1989   -0.5548 C.3     1  UNL1       -0.0328
      7 C          -0.0055    1.4571   -0.1046 C.3     1  UNL1       -0.0468
      8 C           3.8851    0.4856   -0.0956 C.3     1  UNL1       -0.0078
      9 C          -0.5265   -2.1840   -0.9031 C.3     1  UNL1       -0.0492
     10 C           1.5183    1.6259   -0.2345 C.3     1  UNL1       -0.0486
     11 C          -1.9877   -1.6986   -0.9330 C.3     1  UNL1       -0.0492
     12 C           2.4484   -2.1804    0.0350 C.3     1  UNL1       -0.0311
     13 C          -3.0651    0.6035   -1.2173 C.3     1  UNL1       -0.0405
     14 C          -0.3131    0.4524   -2.4005 C.3     1  UNL1       -0.0590
     15 C           4.5886   -0.8600    0.1303 C.2     1  UNL1       -0.0648
     16 C           4.4378    1.5271    0.9229 C.3     1  UNL1       -0.0413
     17 C           3.9267   -2.0281    0.1984 C.2     1  UNL1       -0.0839
     18 C           4.2052    0.9566   -1.5347 C.3     1  UNL1       -0.0556
     19 C           6.0916   -0.8351    0.2868 C.3     1  UNL1       -0.0051
     20 C           5.9625    1.5713    1.0135 C.3     1  UNL1       -0.0258
     21 C          -4.4432    0.0259   -0.8282 C.3     1  UNL1       -0.0499
     22 C           6.5379    0.1936    1.3220 C.3     1  UNL1        0.0590
     23 C          -2.9379    2.0845   -0.8450 C.3     1  UNL1       -0.0621
     24 C          -4.6866   -0.0152    0.6854 C.3     1  UNL1       -0.0500
     25 C          -6.0726   -0.5794    1.0804 C.3     1  UNL1       -0.0415
     26 C          -7.2651    0.1093    0.3563 C.3     1  UNL1       -0.0441
     27 C          -6.1957   -0.5517    2.6108 C.3     1  UNL1       -0.0622
     28 C          -8.6099   -0.5182    0.7428 C.3     1  UNL1       -0.0624
     29 C          -7.3284    1.6245    0.5661 C.3     1  UNL1       -0.0624
     30 H           0.0881   -1.0379    0.7634 H       1  UNL1        0.0309
     31 H           1.9746   -0.9074   -1.6175 H       1  UNL1        0.0309
     32 H           2.1722    0.2112    1.2144 H       1  UNL1        0.0312
     33 H          -2.0558   -0.1291    0.5365 H       1  UNL1        0.0309
     34 H          -0.2591    1.3660    0.9592 H       1  UNL1        0.0271
     35 H          -0.4494    2.3895   -0.4544 H       1  UNL1        0.0271
     36 H          -0.4183   -3.0824   -0.2869 H       1  UNL1        0.0268
     37 H          -0.1856   -2.4327   -1.9144 H       1  UNL1        0.0268
     38 H           1.7422    1.9415   -1.2576 H       1  UNL1        0.0268
     39 H           1.8234    2.4542    0.4151 H       1  UNL1        0.0268
     40 H          -2.4051   -1.8666   -1.9324 H       1  UNL1        0.0268
     41 H          -2.5972   -2.2662   -0.2214 H       1  UNL1        0.0268
     42 H           2.2537   -3.0344   -0.6250 H       1  UNL1        0.0310
     43 H           2.0264   -2.4352    1.0151 H       1  UNL1        0.0310
     44 H          -2.9980    0.5261   -2.3097 H       1  UNL1        0.0301
     45 H          -0.7950    1.3763   -2.7344 H       1  UNL1        0.0235
     46 H           0.7393    0.5366   -2.6845 H       1  UNL1        0.0235
     47 H          -0.7320   -0.3641   -2.9973 H       1  UNL1        0.0235
     48 H           4.0482    1.3028    1.9253 H       1  UNL1        0.0274
     49 H           4.0811    2.5332    0.6718 H       1  UNL1        0.0274
     50 H           4.4783   -2.9472    0.3817 H       1  UNL1        0.0572
     51 H           3.7404    0.3106   -2.2867 H       1  UNL1        0.0238
     52 H           3.8605    1.9805   -1.7115 H       1  UNL1        0.0238
     53 H           5.2804    0.9591   -1.7427 H       1  UNL1        0.0238
     54 H           6.4836   -1.8193    0.5747 H       1  UNL1        0.0335
     55 H           6.5603   -0.6186   -0.6816 H       1  UNL1        0.0335
     56 H           6.3939    1.9631    0.0840 H       1  UNL1        0.0290
     57 H           6.2670    2.2789    1.7948 H       1  UNL1        0.0290
     58 H          -5.2024    0.6436   -1.3197 H       1  UNL1        0.0268
     59 H          -4.5629   -0.9824   -1.2418 H       1  UNL1        0.0268
     60 H           6.2252   -0.1187    2.3259 H       1  UNL1        0.0596
     61 H          -3.8862    2.6022   -1.0339 H       1  UNL1        0.0233
     62 H          -2.2046    2.5976   -1.4703 H       1  UNL1        0.0233
     63 H          -2.6987    2.2347    0.2122 H       1  UNL1        0.0233
     64 H          -3.9413   -0.6530    1.1714 H       1  UNL1        0.0268
     65 H          -4.5654    0.9871    1.1119 H       1  UNL1        0.0268
     66 H          -6.0840   -1.6369    0.7800 H       1  UNL1        0.0301
     67 H           8.3111   -0.5956    1.5212 H       1  UNL1        0.2098
     68 H          -7.1550   -0.0702   -0.7201 H       1  UNL1        0.0298
     69 H          -7.1010   -1.0622    2.9516 H       1  UNL1        0.0232
     70 H          -6.2103    0.4719    2.9975 H       1  UNL1        0.0232
     71 H          -5.3474   -1.0681    3.0741 H       1  UNL1        0.0232
     72 H          -8.5790   -1.6074    0.6354 H       1  UNL1        0.0232
     73 H          -9.4070   -0.1439    0.0908 H       1  UNL1        0.0232
     74 H          -8.8924   -0.2793    1.7729 H       1  UNL1        0.0232
     75 H          -8.1643    2.0536    0.0022 H       1  UNL1        0.0232
     76 H          -7.4769    1.8807    1.6197 H       1  UNL1        0.0232
     77 H          -6.4182    2.1217    0.2195 H       1  UNL1        0.0232
@<TRIPOS>BOND
     1     1    22    1
     2     1    67    1
     3     2     3    1
     4     2     6    1
     5     2     7    1
     6     2    14    1
     7     3     4    1
     8     3     9    1
     9     3    30    1
    10     4     5    1
    11     4    12    1
    12     4    31    1
    13     5     8    1
    14     5    10    1
    15     5    32    1
    16     6    11    1
    17     6    13    1
    18     6    33    1
    19     7    10    1
    20     7    34    1
    21     7    35    1
    22     8    15    1
    23     8    16    1
    24     8    18    1
    25     9    11    1
    26     9    36    1
    27     9    37    1
    28    10    38    1
    29    10    39    1
    30    11    40    1
    31    11    41    1
    32    12    17    1
    33    12    42    1
    34    12    43    1
    35    13    21    1
    36    13    23    1
    37    13    44    1
    38    14    45    1
    39    14    46    1
    40    14    47    1
    41    15    17    2
    42    15    19    1
    43    16    20    1
    44    16    48    1
    45    16    49    1
    46    17    50    1
    47    18    51    1
    48    18    52    1
    49    18    53    1
    50    19    22    1
    51    19    54    1
    52    19    55    1
    53    20    22    1
    54    20    56    1
    55    20    57    1
    56    21    24    1
    57    21    58    1
    58    21    59    1
    59    22    60    1
    60    23    61    1
    61    23    62    1
    62    23    63    1
    63    24    25    1
    64    24    64    1
    65    24    65    1
    66    25    26    1
    67    25    27    1
    68    25    66    1
    69    26    28    1
    70    26    29    1
    71    26    68    1
    72    27    69    1
    73    27    70    1
    74    27    71    1
    75    28    72    1
    76    28    73    1
    77    28    74    1
    78    29    75    1
    79    29    76    1
    80    29    77    1
