@<TRIPOS>MOLECULE
2764
 42 45 0 0 0
SMALL
GASTEIGER

@<TRIPOS>ATOM
      1 F          -2.2164    2.7826    0.3610 F       1  UNL1       -0.2035
      2 O           2.8091    2.5240    0.2325 O.2     1  UNL1       -0.2863
      3 O           5.1624    1.4595    0.6808 O.3     1  UNL1       -0.4770
      4 O           5.5985   -0.2899   -0.7262 O.2     1  UNL1       -0.2449
      5 N           1.5285   -1.3112   -0.2906 N.ar    1  UNL1       -0.3425
      6 N          -3.1274    0.1877    0.0112 N.pl3   1  UNL1       -0.3252
      7 N          -5.8815   -0.5181   -0.2456 N.3     1  UNL1       -0.3130
      8 C           1.1463   -2.7265   -0.4863 C.3     1  UNL1        0.0347
      9 C           1.6920   -3.7953    0.4013 C.3     1  UNL1       -0.0302
     10 C           0.2424   -3.4159    0.4810 C.3     1  UNL1       -0.0302
     11 C           0.5507   -0.2889   -0.1261 C.ar    1  UNL1        0.0549
     12 C           2.8698   -0.9817   -0.2685 C.ar    1  UNL1        0.0231
     13 C           0.9660    1.0479    0.0569 C.ar    1  UNL1        0.0488
     14 C          -0.8289   -0.5519   -0.1380 C.ar    1  UNL1       -0.0136
     15 C          -1.7586    0.4786    0.0260 C.ar    1  UNL1        0.0674
     16 C          -3.9592    0.8291   -1.0161 C.3     1  UNL1        0.0248
     17 C          -3.5988   -1.1171    0.4878 C.3     1  UNL1        0.0248
     18 C           3.3692    0.2493   -0.1019 C.ar    1  UNL1        0.1220
     19 C           2.4163    1.3744    0.0768 C.ar    1  UNL1        0.2034
     20 C          -5.4277    0.8278   -0.5931 C.3     1  UNL1        0.0117
     21 C          -5.0808   -1.0498    0.8559 C.3     1  UNL1        0.0117
     22 C           0.0335    2.0797    0.2209 C.ar    1  UNL1       -0.0118
     23 C          -1.3285    1.7904    0.2047 C.ar    1  UNL1        0.1451
     24 C           4.8232    0.4153   -0.1046 C.2     1  UNL1        0.3420
     25 H           1.0251   -2.9710   -1.5368 H       1  UNL1        0.0528
     26 H           2.3236   -3.5196    1.2368 H       1  UNL1        0.0286
     27 H           1.9395   -4.7488   -0.0491 H       1  UNL1        0.0286
     28 H          -0.4833   -4.1162    0.0853 H       1  UNL1        0.0286
     29 H          -0.0718   -2.9133    1.3877 H       1  UNL1        0.0286
     30 H           3.5217   -1.8387   -0.4086 H       1  UNL1        0.0819
     31 H          -1.1885   -1.5547   -0.3363 H       1  UNL1        0.0658
     32 H          -3.8410    0.2839   -1.9617 H       1  UNL1        0.0476
     33 H          -3.6590    1.8648   -1.2071 H       1  UNL1        0.0476
     34 H          -3.0401   -1.4308    1.3784 H       1  UNL1        0.0476
     35 H          -3.4515   -1.8755   -0.2918 H       1  UNL1        0.0476
     36 H          -5.5769    1.5043    0.2579 H       1  UNL1        0.0439
     37 H          -6.0399    1.2092   -1.4175 H       1  UNL1        0.0439
     38 H          -5.4362   -2.0558    1.1042 H       1  UNL1        0.0439
     39 H          -5.2201   -0.4304    1.7510 H       1  UNL1        0.0439
     40 H           0.3487    3.1098    0.3616 H       1  UNL1        0.0654
     41 H          -6.8602   -0.4802    0.0377 H       1  UNL1        0.1220
     42 H           6.1325    1.6030    0.7045 H       1  UNL1        0.2954
@<TRIPOS>BOND
     1     1    23    1
     2     2    19    2
     3     3    24    1
     4     3    42    1
     5     4    24    2
     6     5     8    1
     7     5    11   ar
     8     5    12   ar
     9     6    15    1
    10     6    16    1
    11     6    17    1
    12     7    20    1
    13     7    21    1
    14     7    41    1
    15     8     9    1
    16     8    10    1
    17     8    25    1
    18     9    10    1
    19     9    26    1
    20     9    27    1
    21    10    28    1
    22    10    29    1
    23    11    13   ar
    24    11    14   ar
    25    12    18   ar
    26    12    30    1
    27    13    19   ar
    28    13    22   ar
    29    14    15   ar
    30    14    31    1
    31    15    23   ar
    32    16    20    1
    33    16    32    1
    34    16    33    1
    35    17    21    1
    36    17    34    1
    37    17    35    1
    38    18    19   ar
    39    18    24    1
    40    20    36    1
    41    20    37    1
    42    21    38    1
    43    21    39    1
    44    22    23   ar
    45    22    40    1
