@<TRIPOS>MOLECULE
439577
 72 75 0 0 0
SMALL
GASTEIGER

@<TRIPOS>ATOM
      1 O           7.6718   -0.5790    1.1897 O.3     1  UNL1       -0.3915
      2 C          -0.7690    0.7584   -0.6535 C.3     1  UNL1       -0.0259
      3 C          -0.1266   -0.6395   -0.5540 C.3     1  UNL1       -0.0320
      4 C           1.3885   -0.6274   -0.7811 C.3     1  UNL1       -0.0307
      5 C           2.0620    0.3170    0.2568 C.3     1  UNL1       -0.0285
      6 C          -2.2515    0.3655   -0.4416 C.3     1  UNL1       -0.0328
      7 C          -0.1672    1.6230    0.4631 C.3     1  UNL1       -0.0468
      8 C           3.6263    0.3942    0.0392 C.3     1  UNL1       -0.0078
      9 C          -0.9988   -1.5047   -1.4586 C.3     1  UNL1       -0.0492
     10 C           1.3652    1.7026    0.3493 C.3     1  UNL1       -0.0486
     11 C          -2.4133   -0.9211   -1.2851 C.3     1  UNL1       -0.0492
     12 C           1.9680   -2.0448   -0.6604 C.3     1  UNL1       -0.0311
     13 C          -3.2911    1.4260   -0.7739 C.3     1  UNL1       -0.0403
     14 C          -0.5648    1.4499   -2.0243 C.3     1  UNL1       -0.0590
     15 C           4.2132   -1.0032   -0.2057 C.2     1  UNL1       -0.0648
     16 C           4.2685    0.9988    1.3235 C.3     1  UNL1       -0.0413
     17 C           3.4542   -2.0728   -0.5009 C.2     1  UNL1       -0.0839
     18 C           3.9822    1.2816   -1.1779 C.3     1  UNL1       -0.0556
     19 C           5.7132   -1.1508   -0.0950 C.3     1  UNL1       -0.0051
     20 C           5.7915    0.8890    1.3778 C.3     1  UNL1       -0.0258
     21 C          -4.7354    0.9460   -0.5098 C.3     1  UNL1       -0.0467
     22 C           6.2480   -0.5552    1.2043 C.3     1  UNL1        0.0590
     23 C          -3.0222    2.6947    0.0451 C.3     1  UNL1       -0.0621
     24 C          -5.0510    0.5905    0.9499 C.3     1  UNL1       -0.0343
     25 C          -6.4848    0.1863    1.1519 C.2     1  UNL1       -0.0853
     26 C          -7.0431   -1.0275    0.9841 C.2     1  UNL1       -0.0796
     27 C          -8.5121   -1.2300    1.2481 C.3     1  UNL1       -0.0440
     28 C          -6.3216   -2.2676    0.5391 C.3     1  UNL1       -0.0440
     29 H          -0.2849   -1.0174    0.4705 H       1  UNL1        0.0309
     30 H           1.6004   -0.2690   -1.7947 H       1  UNL1        0.0309
     31 H           1.8995   -0.1548    1.2398 H       1  UNL1        0.0312
     32 H          -2.3626    0.0777    0.6132 H       1  UNL1        0.0309
     33 H          -0.4255    1.2100    1.4466 H       1  UNL1        0.0271
     34 H          -0.5283    2.6513    0.4497 H       1  UNL1        0.0271
     35 H          -0.9661   -2.5607   -1.1715 H       1  UNL1        0.0268
     36 H          -0.6832   -1.4360   -2.5057 H       1  UNL1        0.0268
     37 H           1.6127    2.3158   -0.5221 H       1  UNL1        0.0268
     38 H           1.7414    2.2465    1.2232 H       1  UNL1        0.0268
     39 H          -2.8508   -0.7206   -2.2697 H       1  UNL1        0.0268
     40 H          -3.0666   -1.6365   -0.7743 H       1  UNL1        0.0268
     41 H           1.6995   -2.6184   -1.5558 H       1  UNL1        0.0310
     42 H           1.5280   -2.5709    0.1961 H       1  UNL1        0.0310
     43 H          -3.2422    1.6893   -1.8379 H       1  UNL1        0.0301
     44 H          -0.9664    2.4675   -2.0274 H       1  UNL1        0.0235
     45 H           0.4904    1.5373   -2.2972 H       1  UNL1        0.0235
     46 H          -1.0531    0.9083   -2.8408 H       1  UNL1        0.0235
     47 H           3.8635    0.4916    2.2100 H       1  UNL1        0.0274
     48 H           3.9983    2.0568    1.4236 H       1  UNL1        0.0274
     49 H           3.9258   -3.0423   -0.6429 H       1  UNL1        0.0572
     50 H           3.7255    2.3313   -1.0021 H       1  UNL1        0.0238
     51 H           5.0532    1.2660   -1.4060 H       1  UNL1        0.0238
     52 H           3.4624    0.9556   -2.0846 H       1  UNL1        0.0238
     53 H           6.0205   -2.2030   -0.1543 H       1  UNL1        0.0335
     54 H           6.1961   -0.6683   -0.9541 H       1  UNL1        0.0335
     55 H           6.2525    1.5269    0.6137 H       1  UNL1        0.0290
     56 H           6.1570    1.2761    2.3371 H       1  UNL1        0.0290
     57 H          -4.9530    0.0824   -1.1505 H       1  UNL1        0.0271
     58 H          -5.4281    1.7334   -0.8383 H       1  UNL1        0.0271
     59 H           5.9123   -1.1520    2.0613 H       1  UNL1        0.0596
     60 H          -2.7634    2.4792    1.0864 H       1  UNL1        0.0233
     61 H          -2.2463    3.3123   -0.4113 H       1  UNL1        0.0233
     62 H          -3.9135    3.3341    0.0623 H       1  UNL1        0.0233
     63 H          -4.8519    1.4452    1.6062 H       1  UNL1        0.0307
     64 H          -4.4006   -0.2162    1.3027 H       1  UNL1        0.0307
     65 H           7.9480   -1.5052    1.0828 H       1  UNL1        0.2098
     66 H          -7.1318    1.0050    1.4655 H       1  UNL1        0.0571
     67 H          -9.0097   -0.3100    1.5727 H       1  UNL1        0.0274
     68 H          -9.0159   -1.5765    0.3397 H       1  UNL1        0.0274
     69 H          -8.6561   -1.9794    2.0334 H       1  UNL1        0.0274
     70 H          -6.7674   -2.6539   -0.3833 H       1  UNL1        0.0274
     71 H          -5.2612   -2.0930    0.3416 H       1  UNL1        0.0274
     72 H          -6.3910   -3.0428    1.3092 H       1  UNL1        0.0274
@<TRIPOS>BOND
     1     1    22    1
     2     1    65    1
     3     2     3    1
     4     2     6    1
     5     2     7    1
     6     2    14    1
     7     3     4    1
     8     3     9    1
     9     3    29    1
    10     4     5    1
    11     4    12    1
    12     4    30    1
    13     5     8    1
    14     5    10    1
    15     5    31    1
    16     6    11    1
    17     6    13    1
    18     6    32    1
    19     7    10    1
    20     7    33    1
    21     7    34    1
    22     8    15    1
    23     8    16    1
    24     8    18    1
    25     9    11    1
    26     9    35    1
    27     9    36    1
    28    10    37    1
    29    10    38    1
    30    11    39    1
    31    11    40    1
    32    12    17    1
    33    12    41    1
    34    12    42    1
    35    13    21    1
    36    13    23    1
    37    13    43    1
    38    14    44    1
    39    14    45    1
    40    14    46    1
    41    15    17    2
    42    15    19    1
    43    16    20    1
    44    16    47    1
    45    16    48    1
    46    17    49    1
    47    18    50    1
    48    18    51    1
    49    18    52    1
    50    19    22    1
    51    19    53    1
    52    19    54    1
    53    20    22    1
    54    20    55    1
    55    20    56    1
    56    21    24    1
    57    21    57    1
    58    21    58    1
    59    22    59    1
    60    23    60    1
    61    23    61    1
    62    23    62    1
    63    24    25    1
    64    24    63    1
    65    24    64    1
    66    25    26    2
    67    25    66    1
    68    26    27    1
    69    26    28    1
    70    27    67    1
    71    27    68    1
    72    27    69    1
    73    28    70    1
    74    28    71    1
    75    28    72    1
