@<TRIPOS>MOLECULE
448537
 40 41 0 0 0
SMALL
GASTEIGER

@<TRIPOS>ATOM
      1 O          -5.9857    0.2503   -0.1267 O.3     1  UNL1       -0.5068
      2 O           5.9857   -0.2502   -0.1265 O.3     1  UNL1       -0.5068
      3 C          -0.4341   -0.5216   -0.1288 C.2     1  UNL1       -0.0368
      4 C           0.4340    0.5213   -0.1293 C.2     1  UNL1       -0.0368
      5 C          -0.0168   -1.9786   -0.1818 C.3     1  UNL1       -0.0297
      6 C           0.0168    1.9783   -0.1829 C.3     1  UNL1       -0.0297
      7 C          -1.9021   -0.3171   -0.1289 C.ar    1  UNL1       -0.0214
      8 C           1.9020    0.3171   -0.1291 C.ar    1  UNL1       -0.0214
      9 C           0.1886   -2.5717    1.2061 C.3     1  UNL1       -0.0612
     10 C          -0.1880    2.5722    1.2048 C.3     1  UNL1       -0.0612
     11 C          -2.5662   -0.2252   -1.3363 C.ar    1  UNL1       -0.0509
     12 C           2.5661    0.2240   -1.3365 C.ar    1  UNL1       -0.0509
     13 C          -2.5646   -0.2247    1.0797 C.ar    1  UNL1       -0.0509
     14 C           2.5645    0.2257    1.0795 C.ar    1  UNL1       -0.0509
     15 C          -3.9478   -0.0330   -1.3354 C.ar    1  UNL1       -0.0196
     16 C           3.9477    0.0319   -1.3355 C.ar    1  UNL1       -0.0196
     17 C          -3.9462   -0.0325    1.0807 C.ar    1  UNL1       -0.0196
     18 C           3.9461    0.0337    1.0806 C.ar    1  UNL1       -0.0196
     19 C          -4.6378    0.0632   -0.1269 C.ar    1  UNL1        0.1169
     20 C           4.6379   -0.0632   -0.1269 C.ar    1  UNL1        0.1169
     21 H           0.9048   -2.1014   -0.7617 H       1  UNL1        0.0311
     22 H          -0.7679   -2.5725   -0.7184 H       1  UNL1        0.0311
     23 H           0.7676    2.5719   -0.7202 H       1  UNL1        0.0311
     24 H          -0.9050    2.1008   -0.7626 H       1  UNL1        0.0311
     25 H           0.5208   -3.6117    1.1204 H       1  UNL1        0.0233
     26 H          -0.7421   -2.5699    1.7824 H       1  UNL1        0.0233
     27 H           0.9434   -2.0283    1.7801 H       1  UNL1        0.0233
     28 H          -0.9424    2.0290    1.7796 H       1  UNL1        0.0233
     29 H          -0.5206    3.6120    1.1186 H       1  UNL1        0.0233
     30 H           0.7430    2.5710    1.7806 H       1  UNL1        0.0233
     31 H          -2.0386   -0.2990   -2.2833 H       1  UNL1        0.0625
     32 H           2.0386    0.2968   -2.2835 H       1  UNL1        0.0625
     33 H          -2.0376   -0.2986    2.0268 H       1  UNL1        0.0625
     34 H           2.0374    0.3004    2.0265 H       1  UNL1        0.0625
     35 H          -4.4748    0.0401   -2.2829 H       1  UNL1        0.0654
     36 H           4.4808   -0.0428   -2.2794 H       1  UNL1        0.0654
     37 H          -4.4781    0.0416    2.0253 H       1  UNL1        0.0654
     38 H           4.4720   -0.0386    2.0289 H       1  UNL1        0.0654
     39 H          -6.2981    0.2935   -1.0469 H       1  UNL1        0.2921
     40 H           6.2975   -0.2930    0.7938 H       1  UNL1        0.2921
@<TRIPOS>BOND
     1     1    19    1
     2     1    39    1
     3     2    20    1
     4     2    40    1
     5     3     4    2
     6     3     5    1
     7     3     7    1
     8     4     6    1
     9     4     8    1
    10     5     9    1
    11     5    21    1
    12     5    22    1
    13     6    10    1
    14     6    23    1
    15     6    24    1
    16     7    11   ar
    17     7    13   ar
    18     8    12   ar
    19     8    14   ar
    20     9    25    1
    21     9    26    1
    22     9    27    1
    23    10    28    1
    24    10    29    1
    25    10    30    1
    26    11    15   ar
    27    11    31    1
    28    12    16   ar
    29    12    32    1
    30    13    17   ar
    31    13    33    1
    32    14    18   ar
    33    14    34    1
    34    15    19   ar
    35    15    35    1
    36    16    20   ar
    37    16    36    1
    38    17    19   ar
    39    17    37    1
    40    18    20   ar
    41    18    38    1
