@<TRIPOS>MOLECULE
4091
 20 19 0 0 0
SMALL
GASTEIGER

@<TRIPOS>ATOM
      1 N          -1.5155   -0.3600   -0.0790 N.pl3   1  UNL1       -0.2648
      2 N           0.7170    0.2154   -0.8185 N.pl3   1  UNL1       -0.0036
      3 N          -0.6602    1.8744   -0.1620 N.pl3   1  UNL1       -0.1263
      4 N           2.9005   -0.4475   -0.3361 N.pl3   1  UNL1       -0.2888
      5 N           1.5201   -0.0296    1.4348 N.pl3   1  UNL1       -0.2888
      6 C          -1.2978   -1.7839   -0.3082 C.3     1  UNL1        0.0559
      7 C          -2.7800    0.0051    0.5511 C.3     1  UNL1        0.0559
      8 C          -0.5260    0.5926   -0.3455 C.cat   1  UNL1        0.4265
      9 C           1.6419   -0.0664    0.0634 C.cat   1  UNL1        0.3873
     10 H          -0.6868   -1.9541   -1.2008 H       1  UNL1        0.0620
     11 H          -2.2427   -2.3145   -0.4674 H       1  UNL1        0.0620
     12 H          -0.7919   -2.2289    0.5541 H       1  UNL1        0.0620
     13 H          -3.4061   -0.8696    0.7568 H       1  UNL1        0.0620
     14 H          -3.3495    0.6744   -0.1018 H       1  UNL1        0.0620
     15 H          -2.5980    0.5078    1.5067 H       1  UNL1        0.0620
     16 H          -1.5953    2.0901    0.1923 H       1  UNL1        0.3063
     17 H           3.6259   -0.6688    0.3371 H       1  UNL1        0.2547
     18 H           3.1387   -0.5194   -1.3192 H       1  UNL1        0.2547
     19 H           0.6520    0.2314    1.8892 H       1  UNL1        0.2547
     20 H           2.3007   -0.2678    2.0371 H       1  UNL1        0.2547
@<TRIPOS>BOND
     1     1     6    1
     2     1     7    1
     3     1     8    1
     4     2     8    1
     5     2     9    2
     6     3     8    2
     7     3    16    1
     8     4     9    1
     9     4    17    1
    10     4    18    1
    11     5     9    1
    12     5    19    1
    13     5    20    1
    14     6    10    1
    15     6    11    1
    16     6    12    1
    17     7    13    1
    18     7    14    1
    19     7    15    1
