@<TRIPOS>MOLECULE
67296
 40 40 0 0 0
SMALL
GASTEIGER

@<TRIPOS>ATOM
      1 O           3.2475   -2.2006   -0.0370 O.3     1  UNL1       -0.5065
      2 C          -1.9561    0.0336    0.1889 C.3     1  UNL1       -0.0530
      3 C          -3.3166   -0.0596   -0.5058 C.3     1  UNL1       -0.0531
      4 C          -0.7725   -0.0544   -0.7796 C.3     1  UNL1       -0.0528
      5 C          -4.4631    0.0569    0.5026 C.3     1  UNL1       -0.0531
      6 C           0.5868    0.1135   -0.0921 C.3     1  UNL1       -0.0489
      7 C          -5.8232    0.0025   -0.1969 C.3     1  UNL1       -0.0533
      8 C           1.7655    0.0132   -1.0682 C.3     1  UNL1       -0.0242
      9 C          -7.0061    0.0843    0.7701 C.3     1  UNL1       -0.0559
     10 C           3.1142    0.1630   -0.4103 C.ar    1  UNL1       -0.0059
     11 C          -8.3587    0.1023    0.0748 C.3     1  UNL1       -0.0653
     12 C           3.7834   -0.9526    0.0712 C.ar    1  UNL1        0.1200
     13 C           3.6646    1.4319   -0.2988 C.ar    1  UNL1       -0.0551
     14 C           5.0298   -0.7963    0.6777 C.ar    1  UNL1       -0.0199
     15 C           4.9109    1.5882    0.3075 C.ar    1  UNL1       -0.0613
     16 C           5.5935    0.4740    0.7958 C.ar    1  UNL1       -0.0583
     17 H          -1.8975    0.9819    0.7376 H       1  UNL1        0.0265
     18 H          -1.8711   -0.7683    0.9328 H       1  UNL1        0.0265
     19 H          -3.3901   -1.0133   -1.0420 H       1  UNL1        0.0265
     20 H          -3.4001    0.7394   -1.2524 H       1  UNL1        0.0265
     21 H          -0.8801    0.7186   -1.5505 H       1  UNL1        0.0265
     22 H          -0.8015   -1.0225   -1.2946 H       1  UNL1        0.0265
     23 H          -4.3938   -0.7567    1.2346 H       1  UNL1        0.0265
     24 H          -4.3756    0.9995    1.0564 H       1  UNL1        0.0265
     25 H           0.6161    1.0844    0.4187 H       1  UNL1        0.0268
     26 H           0.6915   -0.6512    0.6880 H       1  UNL1        0.0268
     27 H          -5.8988   -0.9269   -0.7749 H       1  UNL1        0.0265
     28 H          -5.8902    0.8284   -0.9161 H       1  UNL1        0.0265
     29 H           1.6584    0.7828   -1.8446 H       1  UNL1        0.0314
     30 H           1.7191   -0.9401   -1.6102 H       1  UNL1        0.0314
     31 H          -6.9134    0.9904    1.3807 H       1  UNL1        0.0263
     32 H          -6.9710   -0.7678    1.4592 H       1  UNL1        0.0263
     33 H          -9.1650    0.1598    0.8125 H       1  UNL1        0.0230
     34 H          -8.5035   -0.8054   -0.5195 H       1  UNL1        0.0230
     35 H          -8.4435    0.9665   -0.5916 H       1  UNL1        0.0230
     36 H           3.1407    2.3069   -0.6732 H       1  UNL1        0.0621
     37 H           5.5729   -1.6553    1.0624 H       1  UNL1        0.0654
     38 H           5.3497    2.5775    0.4002 H       1  UNL1        0.0618
     39 H           6.5639    0.5959    1.2680 H       1  UNL1        0.0619
     40 H           3.8611   -2.8447    0.3561 H       1  UNL1        0.2921
@<TRIPOS>BOND
     1     1    12    1
     2     1    40    1
     3     2     3    1
     4     2     4    1
     5     2    17    1
     6     2    18    1
     7     3     5    1
     8     3    19    1
     9     3    20    1
    10     4     6    1
    11     4    21    1
    12     4    22    1
    13     5     7    1
    14     5    23    1
    15     5    24    1
    16     6     8    1
    17     6    25    1
    18     6    26    1
    19     7     9    1
    20     7    27    1
    21     7    28    1
    22     8    10    1
    23     8    29    1
    24     8    30    1
    25     9    11    1
    26     9    31    1
    27     9    32    1
    28    10    12   ar
    29    10    13   ar
    30    11    33    1
    31    11    34    1
    32    11    35    1
    33    12    14   ar
    34    13    15   ar
    35    13    36    1
    36    14    16   ar
    37    14    37    1
    38    15    16   ar
    39    15    38    1
    40    16    39    1
