@<TRIPOS>MOLECULE
13700
 37 37 0 0 0
SMALL
GASTEIGER

@<TRIPOS>ATOM
      1 O          -2.6956   -2.2209   -0.0477 O.3     1  UNL1       -0.5065
      2 C           2.5167    0.1725    0.1997 C.3     1  UNL1       -0.0530
      3 C           1.3238    0.0191   -0.7489 C.3     1  UNL1       -0.0528
      4 C           3.8716    0.0140   -0.4935 C.3     1  UNL1       -0.0531
      5 C          -0.0605    0.0839   -0.0962 C.3     1  UNL1       -0.0489
      6 C           5.0210    0.0869    0.5143 C.3     1  UNL1       -0.0533
      7 C          -1.2114   -0.0180   -1.1003 C.3     1  UNL1       -0.0242
      8 C           6.3775   -0.0383   -0.1792 C.3     1  UNL1       -0.0559
      9 C          -2.5507    0.1416   -0.4259 C.ar    1  UNL1       -0.0059
     10 C           7.5232    0.0682    0.8146 C.3     1  UNL1       -0.0653
     11 C          -3.2217   -0.9692    0.0649 C.ar    1  UNL1        0.1200
     12 C          -3.0912    1.4142   -0.3090 C.ar    1  UNL1       -0.0551
     13 C          -4.4598   -0.8038    0.6860 C.ar    1  UNL1       -0.0199
     14 C          -4.3293    1.5794    0.3120 C.ar    1  UNL1       -0.0613
     15 C          -5.0136    0.4705    0.8094 C.ar    1  UNL1       -0.0583
     16 H           2.4660    1.1553    0.6841 H       1  UNL1        0.0265
     17 H           2.4297   -0.5773    0.9960 H       1  UNL1        0.0265
     18 H           1.4129   -0.9400   -1.2749 H       1  UNL1        0.0265
     19 H           1.3894    0.7997   -1.5176 H       1  UNL1        0.0265
     20 H           3.9061   -0.9485   -1.0180 H       1  UNL1        0.0265
     21 H           3.9878    0.7994   -1.2499 H       1  UNL1        0.0265
     22 H          -0.1413   -0.7182    0.6481 H       1  UNL1        0.0268
     23 H          -0.1399    1.0272    0.4596 H       1  UNL1        0.0268
     24 H           4.9121   -0.7127    1.2570 H       1  UNL1        0.0265
     25 H           4.9728    1.0396    1.0557 H       1  UNL1        0.0265
     26 H          -1.0999    0.7740   -1.8537 H       1  UNL1        0.0314
     27 H          -1.1558   -0.9491   -1.6761 H       1  UNL1        0.0314
     28 H           6.4410   -0.9998   -0.7018 H       1  UNL1        0.0263
     29 H           6.4841    0.7492   -0.9343 H       1  UNL1        0.0263
     30 H           7.4642   -0.7243    1.5675 H       1  UNL1        0.0230
     31 H           8.4833   -0.0253    0.2976 H       1  UNL1        0.0230
     32 H           7.5074    1.0340    1.3298 H       1  UNL1        0.0230
     33 H          -2.5666    2.2857   -0.6904 H       1  UNL1        0.0621
     34 H          -4.9981   -1.6635    1.0757 H       1  UNL1        0.0654
     35 H          -4.7602    2.5716    0.4089 H       1  UNL1        0.0618
     36 H          -5.9774    0.5992    1.2931 H       1  UNL1        0.0619
     37 H          -1.7432   -2.1818   -0.2240 H       1  UNL1        0.2921
@<TRIPOS>BOND
     1     1    11    1
     2     1    37    1
     3     2     3    1
     4     2     4    1
     5     2    16    1
     6     2    17    1
     7     3     5    1
     8     3    18    1
     9     3    19    1
    10     4     6    1
    11     4    20    1
    12     4    21    1
    13     5     7    1
    14     5    22    1
    15     5    23    1
    16     6     8    1
    17     6    24    1
    18     6    25    1
    19     7     9    1
    20     7    26    1
    21     7    27    1
    22     8    10    1
    23     8    28    1
    24     8    29    1
    25     9    11   ar
    26     9    12   ar
    27    10    30    1
    28    10    31    1
    29    10    32    1
    30    11    13   ar
    31    12    14   ar
    32    12    33    1
    33    13    15   ar
    34    13    34    1
    35    14    15   ar
    36    14    35    1
    37    15    36    1
