@<TRIPOS>MOLECULE
1983
 20 20 0 0 0
SMALL
GASTEIGER

@<TRIPOS>ATOM
      1 O           3.8509    0.4516    0.0012 O.3     1  UNL1       -0.5068
      2 O          -2.5999    1.4041   -0.0018 O.2     1  UNL1       -0.2758
      3 N          -1.5705   -0.7171    0.0001 N.am    1  UNL1       -0.2857
      4 C          -0.2066   -0.4231   -0.0002 C.ar    1  UNL1        0.0336
      5 C           0.2205    0.9047    0.0004 C.ar    1  UNL1       -0.0370
      6 C           0.7298   -1.4570   -0.0007 C.ar    1  UNL1       -0.0370
      7 C           1.5841    1.1986    0.0002 C.ar    1  UNL1       -0.0184
      8 C           2.0933   -1.1629   -0.0007 C.ar    1  UNL1       -0.0184
      9 C           2.5204    0.1648   -0.0003 C.ar    1  UNL1        0.1170
     10 C          -2.6485    0.1782    0.0009 C.2     1  UNL1        0.2141
     11 C          -3.9735   -0.5420    0.0010 C.3     1  UNL1        0.0125
     12 H          -0.4436    1.7577    0.0012 H       1  UNL1        0.0637
     13 H           0.4113   -2.4963   -0.0010 H       1  UNL1        0.0637
     14 H          -1.8010   -1.7086    0.0001 H       1  UNL1        0.1548
     15 H           1.9053    2.2370    0.0009 H       1  UNL1        0.0655
     16 H           2.8180   -1.9726   -0.0008 H       1  UNL1        0.0655
     17 H          -4.0655   -1.1463   -0.9058 H       1  UNL1        0.0323
     18 H          -4.7904    0.1844    0.0288 H       1  UNL1        0.0323
     19 H          -4.0445   -1.1886    0.8802 H       1  UNL1        0.0323
     20 H           3.9650    1.4176    0.0017 H       1  UNL1        0.2921
@<TRIPOS>BOND
     1     1     9    1
     2     1    20    1
     3     2    10    2
     4     3     4    1
     5     3    10   am
     6     3    14    1
     7     4     5   ar
     8     4     6   ar
     9     5     7   ar
    10     5    12    1
    11     6     8   ar
    12     6    13    1
    13     7     9   ar
    14     7    15    1
    15     8     9   ar
    16     8    16    1
    17    10    11    1
    18    11    17    1
    19    11    18    1
    20    11    19    1
