@<TRIPOS>MOLECULE
4946
 40 41 0 0 0
SMALL
GASTEIGER

@<TRIPOS>ATOM
      1 O           0.3581    1.4556    0.6931 O.3     1  UNL1       -0.4888
      2 O           2.7841    2.1026    1.9563 O.3     1  UNL1       -0.3872
      3 N           3.0013   -0.4295   -0.7358 N.3     1  UNL1       -0.3112
      4 C           2.7506    1.6406    0.6030 C.3     1  UNL1        0.1015
      5 C           2.9583    0.1243    0.6107 C.3     1  UNL1        0.0254
      6 C           3.2559   -1.8633   -0.7016 C.3     1  UNL1        0.0021
      7 C           1.4257    2.0654   -0.0264 C.3     1  UNL1        0.1166
      8 C           3.2867   -2.4291   -2.1186 C.3     1  UNL1       -0.0499
      9 C           2.1840   -2.5496    0.1392 C.3     1  UNL1       -0.0499
     10 C          -0.7847    1.1880   -0.0057 C.ar    1  UNL1        0.1283
     11 C          -1.6137    0.1069    0.3355 C.ar    1  UNL1        0.0238
     12 C          -2.7871   -0.1304   -0.4193 C.ar    1  UNL1       -0.0144
     13 C          -1.1076    2.0229   -1.0758 C.ar    1  UNL1       -0.0193
     14 C          -1.3042   -0.7438    1.4092 C.ar    1  UNL1       -0.0505
     15 C          -3.0970    0.7205   -1.4929 C.ar    1  UNL1       -0.0538
     16 C          -2.2617    1.7898   -1.8178 C.ar    1  UNL1       -0.0577
     17 C          -3.6163   -1.2112   -0.0783 C.ar    1  UNL1       -0.0539
     18 C          -2.1393   -1.8132    1.7338 C.ar    1  UNL1       -0.0611
     19 C          -3.2932   -2.0465    0.9914 C.ar    1  UNL1       -0.0612
     20 H           3.5802    2.1250    0.0742 H       1  UNL1        0.0640
     21 H           2.1552   -0.3051    1.2181 H       1  UNL1        0.0450
     22 H           3.8939   -0.0928    1.1433 H       1  UNL1        0.0450
     23 H           4.2372   -2.0562   -0.2494 H       1  UNL1        0.0455
     24 H           3.7259    0.0381   -1.2797 H       1  UNL1        0.1223
     25 H           1.4376    1.7758   -1.0846 H       1  UNL1        0.0723
     26 H           1.3154    3.1533    0.0541 H       1  UNL1        0.0723
     27 H           3.5019   -3.5030   -2.1036 H       1  UNL1        0.0245
     28 H           2.3272   -2.2850   -2.6281 H       1  UNL1        0.0245
     29 H           4.0646   -1.9438   -2.7185 H       1  UNL1        0.0245
     30 H           2.3198   -2.3858    1.2130 H       1  UNL1        0.0245
     31 H           2.2295   -3.6358   -0.0048 H       1  UNL1        0.0245
     32 H           1.1742   -2.2320   -0.1449 H       1  UNL1        0.0245
     33 H           2.6876    3.0701    1.9380 H       1  UNL1        0.2100
     34 H          -0.5116    2.8889   -1.3476 H       1  UNL1        0.0654
     35 H          -0.4099   -0.5899    2.0092 H       1  UNL1        0.0625
     36 H          -3.9948    0.5582   -2.0856 H       1  UNL1        0.0624
     37 H          -2.5177    2.4448   -2.6457 H       1  UNL1        0.0619
     38 H          -4.5233   -1.4125   -0.6446 H       1  UNL1        0.0624
     39 H          -1.8882   -2.4642    2.5662 H       1  UNL1        0.0618
     40 H          -3.9428   -2.8792    1.2446 H       1  UNL1        0.0618
@<TRIPOS>BOND
     1     1     7    1
     2     1    10    1
     3     2     4    1
     4     2    33    1
     5     3     5    1
     6     3     6    1
     7     3    24    1
     8     4     5    1
     9     4     7    1
    10     4    20    1
    11     5    21    1
    12     5    22    1
    13     6     8    1
    14     6     9    1
    15     6    23    1
    16     7    25    1
    17     7    26    1
    18     8    27    1
    19     8    28    1
    20     8    29    1
    21     9    30    1
    22     9    31    1
    23     9    32    1
    24    10    11   ar
    25    10    13   ar
    26    11    12   ar
    27    11    14   ar
    28    12    15   ar
    29    12    17   ar
    30    13    16   ar
    31    13    34    1
    32    14    18   ar
    33    14    35    1
    34    15    16   ar
    35    15    36    1
    36    16    37    1
    37    17    19   ar
    38    17    38    1
    39    18    19   ar
    40    18    39    1
    41    19    40    1
