@<TRIPOS>MOLECULE
2153
 21 22 0 0 0
SMALL
GASTEIGER

@<TRIPOS>ATOM
      1 O          -0.4586    2.7181    0.0003 O.2     1  UNL1       -0.2652
      2 O          -2.4695   -1.5249   -0.0002 O.2     1  UNL1       -0.2462
      3 N          -0.1456   -1.4090    0.0001 N.ar    1  UNL1       -0.2796
      4 N          -1.4928    0.6039   -0.0001 N.ar    1  UNL1       -0.2622
      5 N           2.1381    1.2470   -0.0001 N.ar    1  UNL1       -0.3389
      6 N           2.2775   -0.9780    0.0003 N.ar    1  UNL1       -0.2179
      7 C           0.9676   -0.5796   -0.0003 C.ar    1  UNL1        0.1676
      8 C           0.8536    0.7838   -0.0007 C.ar    1  UNL1        0.1488
      9 C          -0.3850    1.4926   -0.0005 C.ar    1  UNL1        0.2820
     10 C          -1.4424   -0.8370   -0.0004 C.ar    1  UNL1        0.3331
     11 C           0.0267   -2.8565    0.0002 C.3     1  UNL1        0.0181
     12 C          -2.8288    1.1905    0.0009 C.3     1  UNL1        0.0196
     13 C           2.9591    0.1491    0.0005 C.ar    1  UNL1        0.0963
     14 H           2.4315    2.2150    0.0001 H       1  UNL1        0.1670
     15 H           0.5848   -3.1483   -0.8947 H       1  UNL1        0.0458
     16 H          -0.9352   -3.3753    0.0006 H       1  UNL1        0.0458
     17 H           0.5853   -3.1481    0.8950 H       1  UNL1        0.0458
     18 H          -2.8044    2.2826    0.0009 H       1  UNL1        0.0458
     19 H          -3.3655    0.8410    0.8886 H       1  UNL1        0.0458
     20 H          -3.3668    0.8410   -0.8862 H       1  UNL1        0.0458
     21 H           4.0359    0.2409    0.0010 H       1  UNL1        0.1027
@<TRIPOS>BOND
     1     1     9    2
     2     2    10    2
     3     3     7   ar
     4     3    10   ar
     5     3    11    1
     6     4     9   ar
     7     4    10   ar
     8     4    12    1
     9     5     8   ar
    10     5    13   ar
    11     5    14    1
    12     6     7   ar
    13     6    13   ar
    14     7     8   ar
    15     8     9   ar
    16    11    15    1
    17    11    16    1
    18    11    17    1
    19    12    18    1
    20    12    19    1
    21    12    20    1
    22    13    21    1
