@<TRIPOS>MOLECULE
5564
 24 25 0 0 0
SMALL
GASTEIGER

@<TRIPOS>ATOM
      1 CL         -1.9929    2.6476    1.0550 Cl      1  UNL1       -0.0797
      2 CL          4.9959   -1.2993    1.2086 Cl      1  UNL1       -0.0834
      3 CL         -4.9750   -1.7896    0.3951 Cl      1  UNL1       -0.0835
      4 O          -0.0044    1.1637   -0.6411 O.3     1  UNL1       -0.4509
      5 O           1.9872    0.5101   -2.4666 O.3     1  UNL1       -0.5032
      6 C           1.1584    0.5912   -0.2218 C.ar    1  UNL1        0.1697
      7 C          -1.1835    0.4855   -0.3842 C.ar    1  UNL1        0.1469
      8 C           2.1581    0.2636   -1.1379 C.ar    1  UNL1        0.1605
      9 C           1.3454    0.3342    1.1363 C.ar    1  UNL1       -0.0143
     10 C          -2.1753    1.0681    0.3860 C.ar    1  UNL1        0.0845
     11 C          -1.3345   -0.7824   -0.9203 C.ar    1  UNL1       -0.0165
     12 C           3.3449   -0.3210   -0.6957 C.ar    1  UNL1        0.0018
     13 C           2.5321   -0.2503    1.5784 C.ar    1  UNL1       -0.0397
     14 C          -3.3536    0.3617    0.6281 C.ar    1  UNL1       -0.0215
     15 C          -2.5127   -1.4885   -0.6782 C.ar    1  UNL1       -0.0398
     16 C           3.5320   -0.5780    0.6625 C.ar    1  UNL1        0.0447
     17 C          -3.5223   -0.9166    0.0959 C.ar    1  UNL1        0.0426
     18 H           0.5831    0.5915    1.8665 H       1  UNL1        0.0656
     19 H          -0.5637   -1.2373   -1.5351 H       1  UNL1        0.0655
     20 H           4.1242   -0.5762   -1.4104 H       1  UNL1        0.0670
     21 H           2.6650   -0.4429    2.6400 H       1  UNL1        0.0633
     22 H          -4.1418    0.8067    1.2319 H       1  UNL1        0.0648
     23 H          -2.6314   -2.4828   -1.1012 H       1  UNL1        0.0633
     24 H           2.7799    0.2175   -2.9482 H       1  UNL1        0.2923
@<TRIPOS>BOND
     1     1    10    1
     2     2    16    1
     3     3    17    1
     4     4     6    1
     5     4     7    1
     6     5     8    1
     7     5    24    1
     8     6     8   ar
     9     6     9   ar
    10     7    10   ar
    11     7    11   ar
    12     8    12   ar
    13     9    13   ar
    14     9    18    1
    15    10    14   ar
    16    11    15   ar
    17    11    19    1
    18    12    16   ar
    19    12    20    1
    20    13    16   ar
    21    13    21    1
    22    14    17   ar
    23    14    22    1
    24    15    17   ar
    25    15    23    1
