@<TRIPOS>MOLECULE
54678486
 39 41 0 0 0
SMALL
GASTEIGER

@<TRIPOS>ATOM
      1 O          -2.0923    0.5090    1.6549 O.2     1  UNL1       -0.4217
      2 O          -0.1541   -0.7316   -1.8406 O.3     1  UNL1       -0.5055
      3 O          -0.1591    1.4166    2.4380 O.2     1  UNL1       -0.2447
      4 O           0.6107    3.4380    0.3798 O.2     1  UNL1       -0.2977
      5 C           1.4232    0.7209    0.2667 C.3     1  UNL1        0.0262
      6 C          -0.0393    0.3677    0.3042 C.ar    1  UNL1        0.0866
      7 C           1.7167    1.6964   -0.8899 C.3     1  UNL1        0.0167
      8 C           2.2871   -0.5301    0.2139 C.ar    1  UNL1       -0.0392
      9 C          -0.7117   -0.2905   -0.6595 C.ar    1  UNL1        0.1381
     10 C          -2.1375   -0.5914   -0.5108 C.ar    1  UNL1        0.0593
     11 C          -0.7416    0.8099    1.5442 C.ar    1  UNL1        0.3446
     12 C           1.2339    3.1173   -0.6310 C.2     1  UNL1        0.1312
     13 C           2.6370   -1.1866    1.3938 C.ar    1  UNL1       -0.0580
     14 C           2.7293   -1.0205   -1.0147 C.ar    1  UNL1       -0.0580
     15 C          -2.7876   -0.1811    0.6478 C.ar    1  UNL1        0.1426
     16 C          -2.8892   -1.2746   -1.4766 C.ar    1  UNL1       -0.0475
     17 C           3.4295   -2.3337    1.3451 C.ar    1  UNL1       -0.0615
     18 C           3.5216   -2.1675   -1.0634 C.ar    1  UNL1       -0.0615
     19 C          -4.1434   -0.4282    0.8685 C.ar    1  UNL1       -0.0185
     20 C           1.5196    4.1231   -1.7159 C.3     1  UNL1       -0.0060
     21 C           3.8717   -2.8241    0.1165 C.ar    1  UNL1       -0.0617
     22 C          -4.2492   -1.5309   -1.2713 C.ar    1  UNL1       -0.0609
     23 C          -4.8753   -1.1082   -0.0997 C.ar    1  UNL1       -0.0582
     24 H           1.7359    1.2440    1.1795 H       1  UNL1        0.0405
     25 H           1.2788    1.3755   -1.8411 H       1  UNL1        0.0351
     26 H           2.8024    1.7787   -1.0344 H       1  UNL1        0.0351
     27 H           2.2979   -0.8158    2.3574 H       1  UNL1        0.0620
     28 H           2.4825   -0.5411   -1.9562 H       1  UNL1        0.0620
     29 H          -2.4484   -1.6404   -2.3998 H       1  UNL1        0.0626
     30 H           3.7017   -2.8451    2.2637 H       1  UNL1        0.0618
     31 H           3.8664   -2.5497   -2.0198 H       1  UNL1        0.0618
     32 H          -4.6268   -0.0968    1.7826 H       1  UNL1        0.0654
     33 H           2.5961    4.1708   -1.8977 H       1  UNL1        0.0306
     34 H           1.1728    5.1118   -1.4031 H       1  UNL1        0.0306
     35 H           0.9947    3.8344   -2.6298 H       1  UNL1        0.0306
     36 H           4.4886   -3.7171    0.0785 H       1  UNL1        0.0618
     37 H          -4.8186   -2.0651   -2.0268 H       1  UNL1        0.0618
     38 H          -0.7723   -0.5520   -2.5678 H       1  UNL1        0.2922
     39 H          -5.9308   -1.3097    0.0564 H       1  UNL1        0.0619
@<TRIPOS>BOND
     1     1    11   ar
     2     1    15   ar
     3     2     9    1
     4     2    38    1
     5     3    11    2
     6     4    12    2
     7     5     6    1
     8     5     7    1
     9     5     8    1
    10     5    24    1
    11     6     9   ar
    12     6    11   ar
    13     7    12    1
    14     7    25    1
    15     7    26    1
    16     8    13   ar
    17     8    14   ar
    18     9    10   ar
    19    10    15   ar
    20    10    16   ar
    21    12    20    1
    22    13    17   ar
    23    13    27    1
    24    14    18   ar
    25    14    28    1
    26    15    19   ar
    27    16    22   ar
    28    16    29    1
    29    17    21   ar
    30    17    30    1
    31    18    21   ar
    32    18    31    1
    33    19    23   ar
    34    19    32    1
    35    20    33    1
    36    20    34    1
    37    20    35    1
    38    21    36    1
    39    22    23   ar
    40    22    37    1
    41    23    39    1
