@<TRIPOS>MOLECULE
5862
   14    13     1     0     0
SMALL
bcc


@<TRIPOS>ATOM
      1 SG           2.2270     1.1230     0.0440 sh         1 CYS      -0.377900
      2 O           -1.3650     1.1720     0.9120 oh         1 CYS      -0.607100
      3 OXT         -1.1770     0.4960    -1.2450 o          1 CYS      -0.550000
      4 N           -0.4350    -1.9830     0.1590 n8         1 CYS      -0.910800
      5 CA           0.1260    -0.6590     0.4340 c3         1 CYS       0.136500
      6 CB           1.4920    -0.5190    -0.2400 c3         1 CYS       0.000700
      7 C           -0.8690     0.3720    -0.0650 c          1 CYS       0.637100
      8 HA           0.2370    -0.5510     1.5200 h1         1 CYS       0.063700
      9 HB1          2.1890    -1.2700     0.1480 h1         1 CYS       0.094200
     10 HB2          1.4160    -0.6630    -1.3230 h1         1 CYS       0.094200
     11 H1          -1.2940    -2.1080     0.6950 hn         1 CYS       0.370300
     12 H2           0.2090    -2.7020     0.4860 hn         1 CYS       0.370300
     13 HG           1.3390     1.8240    -0.6760 hs         1 CYS       0.227800
     14 H           -1.9920     1.8370     0.5570 ho         1 CYS       0.450000
@<TRIPOS>BOND
     1     1     6 1   
     2     1    13 1   
     3     2     7 1   
     4     2    14 1   
     5     3     7 2   
     6     4     5 1   
     7     4    11 1   
     8     4    12 1   
     9     5     6 1   
    10     5     7 1   
    11     5     8 1   
    12     6     9 1   
    13     6    10 1   
@<TRIPOS>SUBSTRUCTURE
     1 CYS         1 TEMP              0 ****  ****    0 ROOT
