@<TRIPOS>MOLECULE
2153
   21    22     1     0     0
SMALL
bcc


@<TRIPOS>ATOM
      1 O           -0.4590     2.7180     0.0000 o          1 UNL      -0.624500
      2 O1          -2.4700    -1.5250    -0.0000 o          1 UNL      -0.635500
      3 N           -0.1460    -1.4090     0.0000 n          1 UNL      -0.417300
      4 N1          -1.4930     0.6040    -0.0000 n          1 UNL      -0.484400
      5 N2           2.1380     1.2470    -0.0000 na         1 UNL      -0.266900
      6 N3           2.2770    -0.9780     0.0000 nc         1 UNL      -0.684000
      7 C            0.9680    -0.5800    -0.0000 cc         1 UNL       0.487200
      8 C1           0.8540     0.7840    -0.0010 cd         1 UNL      -0.353200
      9 C2          -0.3850     1.4930    -0.0010 c          1 UNL       0.762100
     10 C3          -1.4420    -0.8370    -0.0000 c          1 UNL       0.814500
     11 C4           0.0270    -2.8570     0.0000 c3         1 UNL       0.090300
     12 C5          -2.8290     1.1900     0.0010 c3         1 UNL       0.080300
     13 C6           2.9590     0.1490     0.0010 cd         1 UNL       0.448400
     14 H            2.4320     2.2150     0.0000 hn         1 UNL       0.327700
     15 H1           0.5850    -3.1480    -0.8950 h1         1 UNL       0.064033
     16 H2          -0.9350    -3.3750     0.0010 h1         1 UNL       0.064033
     17 H3           0.5850    -3.1480     0.8950 h1         1 UNL       0.064033
     18 H4          -2.8040     2.2830     0.0010 h1         1 UNL       0.063700
     19 H5          -3.3650     0.8410     0.8890 h1         1 UNL       0.063700
     20 H6          -3.3670     0.8410    -0.8860 h1         1 UNL       0.063700
     21 H7           4.0360     0.2410     0.0010 h5         1 UNL       0.072100
@<TRIPOS>BOND
     1     1     9 2   
     2     2    10 2   
     3     3     7 1   
     4     3    10 1   
     5     3    11 1   
     6     4     9 1   
     7     4    10 1   
     8     4    12 1   
     9     5     8 1   
    10     5    13 1   
    11     5    14 1   
    12     6     7 1   
    13     6    13 2   
    14     7     8 2   
    15     8     9 1   
    16    11    15 1   
    17    11    16 1   
    18    11    17 1   
    19    12    18 1   
    20    12    19 1   
    21    12    20 1   
    22    13    21 1   
@<TRIPOS>SUBSTRUCTURE
     1 UNL         1 TEMP              0 ****  ****    0 ROOT
