@<TRIPOS>MOLECULE
5789
   31    32     1     0     0
SMALL
bcc


@<TRIPOS>ATOM
      1 O4*          1.6020    -0.1760    -0.9950 os         1 T1       -0.391600
      2 O3*          3.8150     1.6190     0.1250 oh         1 T1       -0.588800
      3 O5*          2.3210    -2.8550    -0.6010 oh         1 T1       -0.589800
      4 O2          -1.1690     2.8170    -0.3790 o          1 T1       -0.655500
      5 O4          -4.3540    -0.4440     0.2280 o          1 T1       -0.611500
      6 N1          -0.4500     0.6040    -0.1850 n          1 T1       -0.401000
      7 N3          -2.7470     1.1810    -0.0750 ns         1 T1       -0.584500
      8 C3*          3.0350     0.5910     0.7310 c5         1 T1        0.115100
      9 C1*          0.9440     0.9090    -0.3250 c5         1 T1        0.317500
     10 C2*          1.6420     1.1060     1.0110 c5         1 T1       -0.147400
     11 C4*          2.7930    -0.5330    -0.2670 c5         1 T1        0.132100
     12 C5*          2.5460    -1.8780     0.4030 c3         1 T1        0.106400
     13 C6          -0.8230    -0.7220    -0.0080 cc         1 T1        0.043600
     14 C2          -1.4270     1.6210    -0.2250 c          1 T1        0.804500
     15 C5          -2.0870    -1.1400     0.1350 cd         1 T1       -0.268400
     16 C4          -3.1740    -0.1270     0.1030 c          1 T1        0.715700
     17 C5M         -2.4670    -2.5740     0.3250 c3         1 T1       -0.027900
     18 H3*          3.5640     0.2620     1.6310 h1         1 T1        0.051700
     19 H1*          1.0680     1.8010    -0.9510 h2         1 T1        0.101700
     20 H2*1         1.1740     0.4980     1.7940 hc         1 T1        0.086700
     21 H2*2         1.6070     2.1520     1.3310 hc         1 T1        0.086700
     22 H4*          3.6020    -0.6190    -1.0010 h1         1 T1        0.114700
     23 H5*1         1.6940    -1.8680     1.0870 h1         1 T1        0.035200
     24 H5*2         3.4320    -2.1780     0.9730 h1         1 T1        0.035200
     25 H6          -0.0420    -1.4640     0.0070 h4         1 T1        0.201000
     26 H7           3.8970     2.3410     0.7720 ho         1 T1        0.411000
     27 H3          -3.4680     1.8960    -0.1010 hn         1 T1        0.351500
     28 H5*          2.1810    -3.7040    -0.1470 ho         1 T1        0.405000
     29 H5M1        -2.9920    -2.7070     1.2760 hc         1 T1        0.049700
     30 H5M2        -1.5920    -3.2320     0.3330 hc         1 T1        0.049700
     31 H5M3        -3.1240    -2.9050    -0.4850 hc         1 T1        0.049700
@<TRIPOS>BOND
     1     1     9 1   
     2     1    11 1   
     3     2     8 1   
     4     2    26 1   
     5     3    12 1   
     6     3    28 1   
     7     4    14 2   
     8     5    16 2   
     9     6     9 1   
    10     6    13 1   
    11     6    14 1   
    12     7    14 1   
    13     7    16 1   
    14     7    27 1   
    15     8    10 1   
    16     8    11 1   
    17     8    18 1   
    18     9    10 1   
    19     9    19 1   
    20    10    20 1   
    21    10    21 1   
    22    11    12 1   
    23    11    22 1   
    24    12    23 1   
    25    12    24 1   
    26    13    15 2   
    27    13    25 1   
    28    15    16 1   
    29    15    17 1   
    30    17    29 1   
    31    17    30 1   
    32    17    31 1   
@<TRIPOS>SUBSTRUCTURE
     1 T1          1 TEMP              0 ****  ****    0 ROOT
