@<TRIPOS>MOLECULE

21 21 1
SMALL
USER_CHARGES
@<TRIPOS>ATOM
1	H1     1.3337     3.8500     0.0000	H	1	noname	0.0638
2	C1     1.3337     2.3100     0.0000	C.2	1	noname	-0.0193
3	C2     2.6674     1.5400     0.0000	C.2	1	noname	-0.0439
4	H2     4.0010     2.3100     0.0000	H	1	noname	0.0623
5	C3     2.6674    -0.0000     0.0000	C.2	1	noname	-0.0335
6	H3     4.0010    -0.7700     0.0000	H	1	noname	0.0629
7	C4     1.3337    -0.7700     0.0000	C.2	1	noname	-0.0228
8	C5     0.0000     0.0000     0.0000	C.2	1	noname	-0.0035
9	H4    -1.3337    -0.7700     0.0000	H	1	noname	0.0645
10	C6     0.0000     1.5400     0.0000	C.2	1	noname	-0.0054
11	Cl1    -1.3337     2.3100     0.0000	Cl	1	noname	-0.0835
12	C7     1.3337    -2.3100     0.0000	C.2	1	noname	0.0134
13	H5     2.6674    -3.0800     0.0000	H	1	noname	0.0859
14	N1    -0.0000    -3.0800     0.0000	N.2	1	noname	-0.2820
15	N2    -0.0000    -4.6200     0.0000	N.3	1	noname	0.0239
16	H6     1.3337    -5.3900     0.0000	H	1	noname	0.1579
17	C8    -1.3337    -5.3900     0.0000	C.2	1	noname	-0.0508
18	S1    -1.3337    -6.9300     0.0000	S.2	1	noname	-0.1170
19	N3    -2.6674    -4.6200     0.0000	N.3	1	noname	-0.1251
20	H7    -2.6674    -3.0800     0.0000	H	1	noname	0.1261
21	H8    -4.0010    -5.3900     0.0000	H	1	noname	0.1261
@<TRIPOS>BOND
1	1	2	1
2	2	3	ar
3	2	10	ar
4	3	4	1
5	3	5	ar
6	5	6	1
7	5	7	ar
8	7	8	ar
9	7	12	1
10	8	9	1
11	8	10	ar
12	10	11	1
13	12	13	1
14	12	14	2
15	15	16	1
16	17	18	2
17	19	20	1
18	19	21	1
19	14	15	1
20	17	19	1
21	15	17	1
@<TRIPOS>SUBSTRUCTURE
1	noname	1
