@<TRIPOS>MOLECULE
bisphenol A
33 34 1
SMALL
USER_CHARGES
@<TRIPOS>ATOM
1	C1     1.8698     2.3849    -2.9312	C.3	1	noname	-0.0517
2	C2     1.8575     0.9111    -2.3858	C.3	1	noname	0.0397
3	C3     2.8699     0.8685    -1.1835	C.3	1	noname	-0.0517
4	C4     2.3628    -0.1390    -3.3713	C.2	1	noname	-0.0637
5	C5     2.9898     0.1832    -4.6067	C.2	1	noname	-0.0477
6	C6     3.4285    -0.8138    -5.4983	C.2	1	noname	-0.0319
7	C7     3.2711    -2.1719    -5.1750	C.2	1	noname	-0.0047
8	O1     3.7128    -3.1250    -6.0368	O.3	1	noname	-0.2866
9	C8     2.6672    -2.5231    -3.9566	C.2	1	noname	-0.0319
10	C9     2.2316    -1.5224    -3.0665	C.2	1	noname	-0.0477
11	C10     0.4061     0.6542    -1.9987	C.2	1	noname	-0.0637
12	C11    -0.5542     0.3289    -2.9967	C.2	1	noname	-0.0477
13	C12    -1.9055     0.1012    -2.6809	C.2	1	noname	-0.0319
14	C13    -2.3495     0.2091    -1.3517	C.2	1	noname	-0.0047
15	O2    -3.6565     0.0100    -1.0366	O.3	1	noname	-0.2866
16	C14    -1.4250     0.5314    -0.3419	C.2	1	noname	-0.0319
17	C15    -0.0740     0.7616    -0.6629	C.2	1	noname	-0.0477
18	H1     1.8756     3.0822    -2.0935	H	1	noname	0.0243
19	H2     2.7611     2.5398    -3.5392	H	1	noname	0.0243
20	H3     0.9812     2.5547    -3.5392	H	1	noname	0.0243
21	H4     3.0859    -0.1687    -0.9270	H	1	noname	0.0243
22	H5     3.7936     1.3723    -1.4682	H	1	noname	0.0243
23	H6     2.4320     1.3723    -0.3218	H	1	noname	0.0243
24	H7     3.1390     1.2280    -4.8789	H	1	noname	0.0626
25	H8     3.8924    -0.5329    -6.4438	H	1	noname	0.0650
26	H9     4.0582    -3.8703    -5.5401	H	1	noname	0.2181
27	H10     2.5363    -3.5746    -3.7014	H	1	noname	0.0650
28	H11     1.7829    -1.8254    -2.1205	H	1	noname	0.0626
29	H12    -0.2441     0.2515    -4.0387	H	1	noname	0.0626
30	H13    -2.6114    -0.1599    -3.4693	H	1	noname	0.0650
31	H14    -3.7568    -0.0052    -0.0820	H	1	noname	0.2181
32	H15    -1.7570     0.6032     0.6938	H	1	noname	0.0650
33	H16     0.6143     1.0283     0.1391	H	1	noname	0.0626
@<TRIPOS>BOND
1	1	2	1
2	2	3	1
3	2	4	1
4	4	5	2
5	5	6	1
6	6	7	2
7	7	8	1
8	7	9	1
9	9	10	2
10	4	10	1
11	2	11	1
12	11	12	2
13	12	13	1
14	13	14	2
15	14	15	1
16	14	16	1
17	16	17	2
18	11	17	1
19	1	18	1
20	1	19	1
21	1	20	1
22	3	21	1
23	3	22	1
24	3	23	1
25	5	24	1
26	6	25	1
27	8	26	1
28	9	27	1
29	10	28	1
30	12	29	1
31	13	30	1
32	15	31	1
33	16	32	1
34	17	33	1
@<TRIPOS>SUBSTRUCTURE
1	noname	1
