@<TRIPOS>MOLECULE
6106
   22    21     1     0     0
SMALL
bcc


@<TRIPOS>ATOM
      1 O            1.1030    -1.2860     1.2670 oh         1 LEU      -0.599100
      2 OXT          1.5540    -1.0510    -0.9430 o          1 LEU      -0.554000
      3 N            1.7310     1.7540     0.0120 n8         1 LEU      -0.901800
      4 CG          -1.8020     0.1910    -0.4090 c3         1 LEU      -0.064700
      5 CB          -0.5640     1.0790    -0.6490 c3         1 LEU      -0.114400
      6 CA           0.6250     0.8410     0.2950 c3         1 LEU       0.129500
      7 CD1         -2.3420     0.3180     1.0160 c3         1 LEU      -0.098600
      8 CD2         -1.4510    -1.2720    -0.6980 c3         1 LEU      -0.098600
      9 C            1.1460    -0.5750     0.1090 c          1 LEU       0.645100
     10 HG          -2.5820     0.5080    -1.1110 hc         1 LEU       0.048700
     11 HB1         -0.2440     0.9570    -1.6940 hc         1 LEU       0.055200
     12 HB2         -0.8800     2.1270    -0.5530 hc         1 LEU       0.055200
     13 HA           0.3270     0.9880     1.3370 h1         1 LEU       0.095700
     14 HD11        -1.6490    -0.0800     1.7630 hc         1 LEU       0.038867
     15 HD12        -2.5450     1.3660     1.2610 hc         1 LEU       0.038867
     16 HD13        -3.2830    -0.2350     1.1150 hc         1 LEU       0.038867
     17 HD21        -0.8590    -1.3870    -1.6110 hc         1 LEU       0.038867
     18 HD22        -0.9910    -1.7960     0.1400 hc         1 LEU       0.038867
     19 HD23        -2.3870    -1.8170    -0.8820 hc         1 LEU       0.038867
     20 H1           1.4150     2.7160     0.1370 hn         1 LEU       0.361800
     21 H2           1.9990     1.6790    -0.9690 hn         1 LEU       0.361800
     22 H            1.4350    -2.2010     1.1460 ho         1 LEU       0.443000
@<TRIPOS>BOND
     1     1     9 1   
     2     1    22 1   
     3     2     9 2   
     4     3     6 1   
     5     3    20 1   
     6     3    21 1   
     7     4     5 1   
     8     4     7 1   
     9     4     8 1   
    10     4    10 1   
    11     5     6 1   
    12     5    11 1   
    13     5    12 1   
    14     6     9 1   
    15     6    13 1   
    16     7    14 1   
    17     7    15 1   
    18     7    16 1   
    19     8    17 1   
    20     8    18 1   
    21     8    19 1   
@<TRIPOS>SUBSTRUCTURE
     1 LEU         1 TEMP              0 ****  ****    0 ROOT
