@<TRIPOS>MOLECULE
6626
   27    28     1     0     0
SMALL
bcc


@<TRIPOS>ATOM
      1 S           -0.0020     1.6160     0.0000 sy         1 UNL       1.452600
      2 O           -0.0240     2.3470    -1.2590 o          1 UNL      -0.661800
      3 O1           0.0600     2.3460     1.2600 o          1 UNL      -0.661800
      4 O2          -4.7900    -1.8260     0.0050 oh         1 UNL      -0.487100
      5 O3           4.7800    -1.8340    -0.0050 oh         1 UNL      -0.487100
      6 C           -1.4200     0.5970     0.0010 ca         1 UNL      -0.413500
      7 C1           1.4350     0.5790    -0.0010 ca         1 UNL      -0.413500
      8 C2          -1.9860     0.1900     1.2100 ca         1 UNL       0.019500
      9 C3           1.9790     0.1870    -1.2090 ca         1 UNL       0.019500
     10 C4          -1.9880     0.1900    -1.2070 ca         1 UNL       0.019500
     11 C5           1.9810     0.1860     1.2070 ca         1 UNL       0.019500
     12 C6          -3.1180    -0.6250     1.2110 ca         1 UNL      -0.214500
     13 C7           3.1100    -0.6290    -1.2110 ca         1 UNL      -0.214500
     14 C8          -3.1200    -0.6250    -1.2050 ca         1 UNL      -0.214500
     15 C9           3.1120    -0.6300     1.2050 ca         1 UNL      -0.214500
     16 C10         -3.6850    -1.0320     0.0030 ca         1 UNL       0.187100
     17 C11          3.6760    -1.0380    -0.0030 ca         1 UNL       0.187100
     18 H           -1.5560     0.4900     2.1610 ha         1 UNL       0.154500
     19 H1           1.5470     0.4890    -2.1590 ha         1 UNL       0.154500
     20 H2          -1.5610     0.4870    -2.1600 ha         1 UNL       0.154500
     21 H3           1.5520     0.4840     2.1580 ha         1 UNL       0.154500
     22 H4          -3.5530    -0.9400     2.1550 ha         1 UNL       0.151000
     23 H5           3.5390    -0.9420    -2.1590 ha         1 UNL       0.151000
     24 H6          -3.5520    -0.9370    -2.1530 ha         1 UNL       0.151000
     25 H7           3.5480    -0.9470     2.1490 ha         1 UNL       0.151000
     26 H8          -5.0470    -2.0100    -0.9150 ho         1 UNL       0.427000
     27 H9           5.0350    -2.0180    -0.9250 ho         1 UNL       0.427000
@<TRIPOS>BOND
     1     1     2 2   
     2     1     3 2   
     3     1     6 1   
     4     1     7 1   
     5     4    16 1   
     6     4    26 1   
     7     5    17 1   
     8     5    27 1   
     9     6     8 ar  
    10     6    10 ar  
    11     7     9 ar  
    12     7    11 ar  
    13     8    12 ar  
    14     8    18 1   
    15     9    13 ar  
    16     9    19 1   
    17    10    14 ar  
    18    10    20 1   
    19    11    15 ar  
    20    11    21 1   
    21    12    16 ar  
    22    12    22 1   
    23    13    17 ar  
    24    13    23 1   
    25    14    16 ar  
    26    14    24 1   
    27    15    17 ar  
    28    15    25 1   
@<TRIPOS>SUBSTRUCTURE
     1 UNL         1 TEMP              0 ****  ****    0 ROOT
