@<TRIPOS>MOLECULE
6623
   33    34     1     0     0
SMALL
bcc


@<TRIPOS>ATOM
      1 O            4.7040     1.7340    -0.1080 oh         1 UNL      -0.498100
      2 O1          -4.6730     1.7600     0.1080 oh         1 UNL      -0.498100
      3 C            0.0070    -1.3900    -0.0000 c3         1 UNL       0.049600
      4 C1           1.2480    -0.5640    -0.0290 ca         1 UNL      -0.107300
      5 C2          -1.2910    -0.5160     0.0290 ca         1 UNL      -0.107300
      6 C3          -0.1390    -2.3590     1.2340 c3         1 UNL      -0.086100
      7 C4           0.0270    -2.3630    -1.2320 c3         1 UNL      -0.086100
      8 C5           1.4700     0.3250    -1.0800 ca         1 UNL      -0.089500
      9 C6          -1.4470     0.3330     1.0800 ca         1 UNL      -0.089500
     10 C7           2.1870    -0.6810     0.9960 ca         1 UNL      -0.089500
     11 C8          -2.1700    -0.6690    -0.9970 ca         1 UNL      -0.089500
     12 C9           2.6320     1.0970    -1.1070 ca         1 UNL      -0.185500
     13 C10         -2.6040     1.1110     1.1060 ca         1 UNL      -0.185500
     14 C11          3.3490     0.0910     0.9700 ca         1 UNL      -0.185500
     15 C12         -3.3260     0.1100    -0.9700 ca         1 UNL      -0.185500
     16 C13          3.5710     0.9810    -0.0820 ca         1 UNL       0.121100
     17 C14         -3.5440     1.0000     0.0810 ca         1 UNL       0.121100
     18 H            0.6710    -3.0980     1.2560 hc         1 UNL       0.039700
     19 H1          -0.1300    -1.8290     2.1930 hc         1 UNL       0.039700
     20 H2          -1.0830    -2.9170     1.1870 hc         1 UNL       0.039700
     21 H3           0.9350    -2.9800    -1.2090 hc         1 UNL       0.039700
     22 H4          -0.8220    -3.0580    -1.2280 hc         1 UNL       0.039700
     23 H5           0.0420    -1.8360    -2.1930 hc         1 UNL       0.039700
     24 H6           0.7520     0.4370    -1.8880 ha         1 UNL       0.138000
     25 H7          -0.7220     0.4340     1.8790 ha         1 UNL       0.138000
     26 H8           2.0640    -1.3570     1.8350 ha         1 UNL       0.138000
     27 H9          -2.0560    -1.3370    -1.8390 ha         1 UNL       0.138000
     28 H10          2.7930     1.7870    -1.9310 ha         1 UNL       0.141500
     29 H11         -2.7610     1.8020     1.9300 ha         1 UNL       0.141500
     30 H12          4.0770    -0.0040     1.7700 ha         1 UNL       0.141500
     31 H13         -4.0550     0.0200    -1.7720 ha         1 UNL       0.141500
     32 H14          4.6930     2.2920    -0.9050 ho         1 UNL       0.418000
     33 H15         -4.6590     2.3170     0.9050 ho         1 UNL       0.418000
@<TRIPOS>BOND
     1     1    16 1   
     2     1    32 1   
     3     2    17 1   
     4     2    33 1   
     5     3     4 1   
     6     3     5 1   
     7     3     6 1   
     8     3     7 1   
     9     4     8 ar  
    10     4    10 ar  
    11     5     9 ar  
    12     5    11 ar  
    13     6    18 1   
    14     6    19 1   
    15     6    20 1   
    16     7    21 1   
    17     7    22 1   
    18     7    23 1   
    19     8    12 ar  
    20     8    24 1   
    21     9    13 ar  
    22     9    25 1   
    23    10    14 ar  
    24    10    26 1   
    25    11    15 ar  
    26    11    27 1   
    27    12    16 ar  
    28    12    28 1   
    29    13    17 ar  
    30    13    29 1   
    31    14    16 ar  
    32    14    30 1   
    33    15    17 ar  
    34    15    31 1   
@<TRIPOS>SUBSTRUCTURE
     1 UNL         1 TEMP              0 ****  ****    0 ROOT
