@<TRIPOS>MOLECULE
145742
   17    17     1     0     0
SMALL
bcc


@<TRIPOS>ATOM
      1 O            2.1620    -0.9510    -0.1120 oh         1 PRO      -0.602100
      2 OXT          1.5690     1.2160    -0.4950 o          1 PRO      -0.555000
      3 N           -0.7810     0.9310     0.7770 n7         1 PRO      -0.797200
      4 CA           0.0830    -0.2480     0.7250 c5         1 PRO       0.125500
      5 CB          -0.7240    -1.3170    -0.0030 c5         1 PRO      -0.082400
      6 CG          -1.9890    -0.6110    -0.4750 c5         1 PRO      -0.098400
      7 CD          -1.6500     0.8640    -0.3930 c5         1 PRO       0.147800
      8 C            1.3290     0.1150    -0.0240 c          1 PRO       0.611100
      9 HA           0.3620    -0.5520     1.7390 h1         1 PRO       0.098700
     10 HB1         -0.9870    -2.1430     0.6670 hc         1 PRO       0.061200
     11 HB2         -0.1920    -1.7410    -0.8620 hc         1 PRO       0.061200
     12 HG1         -2.2800    -0.9160    -1.4850 hc         1 PRO       0.052700
     13 HG2         -2.8190    -0.8490     0.2020 hc         1 PRO       0.052700
     14 HD1         -1.1200     1.1930    -1.2940 h1         1 PRO       0.048700
     15 HD2         -2.5420     1.4830    -0.2690 h1         1 PRO       0.048700
     16 H           -0.2510     1.8000     0.8020 hn         1 PRO       0.380800
     17 H1           2.9840    -0.7340    -0.6010 ho         1 PRO       0.446000
@<TRIPOS>BOND
     1     1     8 1   
     2     1    17 1   
     3     2     8 2   
     4     3     4 1   
     5     3     7 1   
     6     3    16 1   
     7     4     5 1   
     8     4     8 1   
     9     4     9 1   
    10     5     6 1   
    11     5    10 1   
    12     5    11 1   
    13     6     7 1   
    14     6    12 1   
    15     6    13 1   
    16     7    14 1   
    17     7    15 1   
@<TRIPOS>SUBSTRUCTURE
     1 PRO         1 TEMP              0 ****  ****    0 ROOT
