@<TRIPOS>MOLECULE
2249
   41    41     1     0     0
SMALL
bcc


@<TRIPOS>ATOM
      1 O           -1.0830    -1.5380    -0.3660 os         1 UNL      -0.316900
      2 O1          -3.5750    -2.7560    -0.5620 oh         1 UNL      -0.589800
      3 O2           4.9780    -0.8560    -0.5230 o          1 UNL      -0.619100
      4 N           -3.5770     0.7580     0.6080 n7         1 UNL      -0.824200
      5 N1           6.2520     0.9130     0.2040 nt         1 UNL      -0.667000
      6 C           -3.7960    -0.3850    -0.2690 c3         1 UNL       0.131800
      7 C1          -3.3600    -1.7000     0.3790 c3         1 UNL       0.144100
      8 C2          -3.9470     2.0010    -0.0540 c3         1 UNL       0.179500
      9 C3          -1.8900    -1.7110     0.7950 c3         1 UNL       0.135400
     10 C4          -3.7520     3.1670     0.9100 c3         1 UNL      -0.096100
     11 C5          -3.1200     2.1930    -1.3220 c3         1 UNL      -0.096100
     12 C6           0.1140    -0.8950    -0.1920 ca         1 UNL       0.140100
     13 C7           2.5460     0.4090     0.1580 ca         1 UNL      -0.135300
     14 C8           0.6500    -0.1460    -1.2340 ca         1 UNL      -0.181500
     15 C9           0.7820    -0.9980     1.0230 ca         1 UNL      -0.181500
     16 C10          1.8700     0.5080    -1.0580 ca         1 UNL      -0.093000
     17 C11          2.0020    -0.3440     1.1980 ca         1 UNL      -0.093000
     18 C12          3.8490     1.1090     0.3460 c3         1 UNL      -0.104100
     19 C13          5.0570     0.2710    -0.0400 c          1 UNL       0.655100
     20 H           -3.2480    -0.3030    -1.2130 h1         1 UNL       0.044200
     21 H1          -4.8580    -0.4580    -0.5400 h1         1 UNL       0.044200
     22 H2          -3.9800    -1.9100     1.2590 h1         1 UNL       0.038700
     23 H3          -5.0100     1.9760    -0.3260 h1         1 UNL       0.018700
     24 H4          -4.1170     0.6420     1.4640 hn         1 UNL       0.356800
     25 H5          -1.7290    -0.9300     1.5470 h1         1 UNL       0.056700
     26 H6          -1.6440    -2.6870     1.2300 h1         1 UNL       0.056700
     27 H7          -4.3600     3.0390     1.8130 hc         1 UNL       0.040533
     28 H8          -4.0510     4.1120     0.4420 hc         1 UNL       0.040533
     29 H9          -2.7040     3.2620     1.2180 hc         1 UNL       0.040533
     30 H10         -3.2260     3.2200    -1.6920 hc         1 UNL       0.040533
     31 H11         -2.0520     2.0240    -1.1420 hc         1 UNL       0.040533
     32 H12         -3.4470     1.5440    -2.1400 hc         1 UNL       0.040533
     33 H13         -4.5220    -2.7640    -0.7810 ho         1 UNL       0.403000
     34 H14          0.1270    -0.0660    -2.1820 ha         1 UNL       0.146000
     35 H15          0.4100    -1.6000     1.8470 ha         1 UNL       0.146000
     36 H16          2.2840     1.0900    -1.8780 ha         1 UNL       0.137000
     37 H17          2.5230    -0.4360     2.1480 ha         1 UNL       0.137000
     38 H18          3.9610     1.4170     1.3940 hc         1 UNL       0.081200
     39 H19          3.8690     2.0330    -0.2460 hc         1 UNL       0.081200
     40 H20          7.1380     0.4670    -0.0090 hn         1 UNL       0.310500
     41 H21          6.2940     1.8460     0.6020 hn         1 UNL       0.310500
@<TRIPOS>BOND
     1     1     9 1   
     2     1    12 1   
     3     2     7 1   
     4     2    33 1   
     5     3    19 2   
     6     4     6 1   
     7     4     8 1   
     8     4    24 1   
     9     5    19 1   
    10     5    40 1   
    11     5    41 1   
    12     6     7 1   
    13     6    20 1   
    14     6    21 1   
    15     7     9 1   
    16     7    22 1   
    17     8    10 1   
    18     8    11 1   
    19     8    23 1   
    20     9    25 1   
    21     9    26 1   
    22    10    27 1   
    23    10    28 1   
    24    10    29 1   
    25    11    30 1   
    26    11    31 1   
    27    11    32 1   
    28    12    14 ar  
    29    12    15 ar  
    30    13    16 ar  
    31    13    17 ar  
    32    13    18 1   
    33    14    16 ar  
    34    14    34 1   
    35    15    17 ar  
    36    15    35 1   
    37    16    36 1   
    38    17    37 1   
    39    18    19 1   
    40    18    38 1   
    41    18    39 1   
@<TRIPOS>SUBSTRUCTURE
     1 UNL         1 TEMP              0 ****  ****    0 ROOT
