@<TRIPOS>MOLECULE
2249
 41 41 0 0 0
SMALL
GASTEIGER

@<TRIPOS>ATOM
      1 O          -1.0828   -1.5377   -0.3658 O.3     1  UNL1       -0.4894
      2 O          -3.5748   -2.7555   -0.5623 O.3     1  UNL1       -0.3872
      3 O           4.9775   -0.8556   -0.5231 O.2     1  UNL1       -0.2757
      4 N          -3.5767    0.7576    0.6077 N.3     1  UNL1       -0.3112
      5 N           6.2519    0.9135    0.2042 N.am    1  UNL1       -0.3291
      6 C          -3.7964   -0.3845   -0.2692 C.3     1  UNL1        0.0254
      7 C          -3.3596   -1.7002    0.3793 C.3     1  UNL1        0.1015
      8 C          -3.9474    2.0011   -0.0539 C.3     1  UNL1        0.0021
      9 C          -1.8901   -1.7113    0.7946 C.3     1  UNL1        0.1166
     10 C          -3.7518    3.1671    0.9099 C.3     1  UNL1       -0.0499
     11 C          -3.1198    2.1930   -1.3217 C.3     1  UNL1       -0.0499
     12 C           0.1138   -0.8953   -0.1923 C.ar    1  UNL1        0.1206
     13 C           2.5456    0.4089    0.1578 C.ar    1  UNL1       -0.0384
     14 C           0.6505   -0.1462   -1.2340 C.ar    1  UNL1       -0.0197
     15 C           0.7823   -0.9980    1.0229 C.ar    1  UNL1       -0.0197
     16 C           1.8700    0.5077   -1.0585 C.ar    1  UNL1       -0.0547
     17 C           2.0018   -0.3440    1.1985 C.ar    1  UNL1       -0.0547
     18 C           3.8489    1.1086    0.3460 C.3     1  UNL1        0.0489
     19 C           5.0568    0.2706   -0.0401 C.2     1  UNL1        0.2148
     20 H          -3.2475   -0.3029   -1.2129 H       1  UNL1        0.0450
     21 H          -4.8576   -0.4583   -0.5404 H       1  UNL1        0.0450
     22 H          -3.9800   -1.9104    1.2587 H       1  UNL1        0.0640
     23 H          -5.0104    1.9760   -0.3264 H       1  UNL1        0.0455
     24 H          -4.1169    0.6419    1.4645 H       1  UNL1        0.1223
     25 H          -1.7286   -0.9297    1.5467 H       1  UNL1        0.0723
     26 H          -1.6444   -2.6871    1.2301 H       1  UNL1        0.0723
     27 H          -4.3596    3.0392    1.8126 H       1  UNL1        0.0245
     28 H          -4.0507    4.1116    0.4423 H       1  UNL1        0.0245
     29 H          -2.7041    3.2618    1.2177 H       1  UNL1        0.0245
     30 H          -3.2256    3.2197   -1.6919 H       1  UNL1        0.0245
     31 H          -2.0518    2.0241   -1.1417 H       1  UNL1        0.0245
     32 H          -3.4467    1.5435   -2.1396 H       1  UNL1        0.0245
     33 H          -4.5223   -2.7640   -0.7809 H       1  UNL1        0.2100
     34 H           0.1269   -0.0661   -2.1824 H       1  UNL1        0.0654
     35 H           0.4103   -1.5997    1.8466 H       1  UNL1        0.0654
     36 H           2.2838    1.0899   -1.8777 H       1  UNL1        0.0622
     37 H           2.5231   -0.4356    2.1478 H       1  UNL1        0.0622
     38 H           3.9605    1.4167    1.3937 H       1  UNL1        0.0407
     39 H           3.8690    2.0325   -0.2464 H       1  UNL1        0.0407
     40 H           7.1378    0.4673   -0.0091 H       1  UNL1        0.1449
     41 H           6.2941    1.8464    0.6018 H       1  UNL1        0.1449
@<TRIPOS>BOND
     1     1     9    1
     2     1    12    1
     3     2     7    1
     4     2    33    1
     5     3    19    2
     6     4     6    1
     7     4     8    1
     8     4    24    1
     9     5    19   am
    10     5    40    1
    11     5    41    1
    12     6     7    1
    13     6    20    1
    14     6    21    1
    15     7     9    1
    16     7    22    1
    17     8    10    1
    18     8    11    1
    19     8    23    1
    20     9    25    1
    21     9    26    1
    22    10    27    1
    23    10    28    1
    24    10    29    1
    25    11    30    1
    26    11    31    1
    27    11    32    1
    28    12    14   ar
    29    12    15   ar
    30    13    16   ar
    31    13    17   ar
    32    13    18    1
    33    14    16   ar
    34    14    34    1
    35    15    17   ar
    36    15    35    1
    37    16    36    1
    38    17    37    1
    39    18    19    1
    40    18    38    1
    41    18    39    1
