@<TRIPOS>MOLECULE
5793
   24    24     1     0     0
SMALL
bcc


@<TRIPOS>ATOM
      1 O           -0.6680     1.1590     0.2570 os         1 UNL      -0.451600
      2 O1          -0.8870    -2.4480    -0.3390 oh         1 UNL      -0.586800
      3 O2           1.8620    -2.0690     0.4700 oh         1 UNL      -0.577800
      4 O3           2.8610     0.5410    -0.4620 oh         1 UNL      -0.555800
      5 O4           1.1220     2.6550     0.2570 oh         1 UNL      -0.564800
      6 O5          -3.3740     0.9720    -0.1860 oh         1 UNL      -0.593800
      7 C           -0.3730    -1.2470     0.2300 c6         1 UNL       0.072100
      8 C1           1.0860    -1.0710    -0.1940 c6         1 UNL       0.081100
      9 C2          -1.2210    -0.0620    -0.2370 c6         1 UNL       0.078100
     10 C3           1.6080     0.3150     0.1840 c6         1 UNL       0.093100
     11 C4           0.6390     1.4130    -0.2530 c6         1 UNL       0.306900
     12 C5          -2.6550    -0.1580     0.2740 c3         1 UNL       0.138400
     13 H           -0.4250    -1.3520     1.3210 h1         1 UNL       0.105700
     14 H1           1.2070    -1.2490    -1.2700 h1         1 UNL       0.032700
     15 H2          -1.2550    -0.0100    -1.3340 h1         1 UNL       0.053700
     16 H3           1.7950     0.3600     1.2640 h1         1 UNL       0.104700
     17 H4           0.5970     1.5140    -1.3440 h2         1 UNL       0.077700
     18 H5          -2.6920    -0.1530     1.3690 h1         1 UNL       0.064200
     19 H6          -3.1560    -1.0580    -0.0920 h1         1 UNL       0.064200
     20 H7          -0.8510    -2.3610    -1.3070 ho         1 UNL       0.405000
     21 H8           1.4970    -2.9360     0.2200 ho         1 UNL       0.418000
     22 H9           2.7160     0.4990    -1.4230 ho         1 UNL       0.400000
     23 H10          1.4880     2.5030     1.1450 ho         1 UNL       0.420000
     24 H11         -2.9190     1.7650     0.1440 ho         1 UNL       0.415000
@<TRIPOS>BOND
     1     1     9 1   
     2     1    11 1   
     3     2     7 1   
     4     2    20 1   
     5     3     8 1   
     6     3    21 1   
     7     4    10 1   
     8     4    22 1   
     9     5    11 1   
    10     5    23 1   
    11     6    12 1   
    12     6    24 1   
    13     7     8 1   
    14     7     9 1   
    15     7    13 1   
    16     8    10 1   
    17     8    14 1   
    18     9    12 1   
    19     9    15 1   
    20    10    11 1   
    21    10    16 1   
    22    11    17 1   
    23    12    18 1   
    24    12    19 1   
@<TRIPOS>SUBSTRUCTURE
     1 UNL         1 TEMP              0 ****  ****    0 ROOT
