@<TRIPOS>MOLECULE
2519
   24    25     1     0     0
SMALL
bcc


@<TRIPOS>ATOM
      1 O            0.4700     2.5690     0.0010 o          1 UNL      -0.633500
      2 O1          -3.1270    -0.4440    -0.0000 o          1 UNL      -0.637500
      3 N           -0.9690    -1.3120     0.0000 n          1 UNL      -0.417300
      4 N1           2.2180     0.1410    -0.0000 na         1 UNL      -0.148900
      5 N2          -1.3480     1.0800    -0.0000 n          1 UNL      -0.483400
      6 N3           1.4120    -1.9370     0.0000 nc         1 UNL      -0.685000
      7 C            0.8580     0.2590    -0.0010 cd         1 UNL      -0.350200
      8 C1           0.3900    -1.0260    -0.0000 cc         1 UNL       0.485200
      9 C2           0.0310     1.4220    -0.0010 c          1 UNL       0.765100
     10 C3          -1.9060    -0.2490    -0.0000 c          1 UNL       0.814500
     11 C4           2.5030    -1.2000     0.0000 cd         1 UNL       0.443400
     12 C5          -1.4280    -2.6960     0.0010 c3         1 UNL       0.090300
     13 C6           3.1930     1.2060     0.0000 c3         1 UNL       0.009600
     14 C7          -2.2970     2.1880     0.0010 c3         1 UNL       0.080300
     15 H            3.5160    -1.5790     0.0010 h5         1 UNL       0.071100
     16 H1          -1.0450    -3.1970    -0.8940 h1         1 UNL       0.063367
     17 H2          -2.5190    -2.7600     0.0010 h1         1 UNL       0.063367
     18 H3          -1.0450    -3.1960     0.8960 h1         1 UNL       0.063367
     19 H4           4.1990     0.7800     0.0000 h1         1 UNL       0.071700
     20 H5           3.0470     1.8090    -0.8990 h1         1 UNL       0.071700
     21 H6           3.0470     1.8080     0.9000 h1         1 UNL       0.071700
     22 H7          -1.8090     3.1650    -0.0000 h1         1 UNL       0.063367
     23 H8          -2.9320     2.1030     0.8880 h1         1 UNL       0.063367
     24 H9          -2.9350     2.1020    -0.8850 h1         1 UNL       0.063367
@<TRIPOS>BOND
     1     1     9 2   
     2     2    10 2   
     3     3     8 1   
     4     3    10 1   
     5     3    12 1   
     6     4     7 1   
     7     4    11 1   
     8     4    13 1   
     9     5     9 1   
    10     5    10 1   
    11     5    14 1   
    12     6     8 1   
    13     6    11 2   
    14     7     8 2   
    15     7     9 1   
    16    11    15 1   
    17    12    16 1   
    18    12    17 1   
    19    12    18 1   
    20    13    19 1   
    21    13    20 1   
    22    13    21 1   
    23    14    22 1   
    24    14    23 1   
    25    14    24 1   
@<TRIPOS>SUBSTRUCTURE
     1 UNL         1 TEMP              0 ****  ****    0 ROOT
