@<TRIPOS>MOLECULE
3825
 33 34 0 0 0
SMALL
GASTEIGER

@<TRIPOS>ATOM
      1 O           4.2053   -2.4798    0.2885 O.3     1  UNL1       -0.4802
      2 O          -1.6049    1.7490    1.7885 O.2     1  UNL1       -0.2867
      3 O           2.1006   -2.1844   -0.4982 O.2     1  UNL1       -0.2503
      4 C           3.3677   -0.2163    0.2004 C.3     1  UNL1        0.0784
      5 C           2.1962    0.6219   -0.1860 C.ar    1  UNL1       -0.0333
      6 C           0.9730    0.4537    0.4632 C.ar    1  UNL1       -0.0470
      7 C          -0.0875    1.2422    0.0822 C.ar    1  UNL1        0.0225
      8 C           2.3236    1.5737   -1.1977 C.ar    1  UNL1       -0.0578
      9 C           3.8094   -0.0360    1.6671 C.3     1  UNL1       -0.0482
     10 C           0.0051    2.1893   -0.9110 C.ar    1  UNL1       -0.0509
     11 C           1.2280    2.3574   -1.5601 C.ar    1  UNL1       -0.0608
     12 C          -1.3982    1.0621    0.7769 C.2     1  UNL1        0.1931
     13 C           3.1365   -1.7109   -0.0494 C.2     1  UNL1        0.3119
     14 C          -2.4077    0.1271    0.3068 C.ar    1  UNL1        0.0223
     15 C          -2.1688   -0.6431   -0.8315 C.ar    1  UNL1       -0.0509
     16 C          -3.6147   -0.0003    0.9943 C.ar    1  UNL1       -0.0509
     17 C          -3.1371   -1.5403   -1.2824 C.ar    1  UNL1       -0.0611
     18 C          -4.5828   -0.8977    0.5434 C.ar    1  UNL1       -0.0611
     19 C          -4.3438   -1.6676   -0.5950 C.ar    1  UNL1       -0.0617
     20 H           4.2204    0.0558   -0.4368 H       1  UNL1        0.0459
     21 H           0.8578   -0.2823    1.2539 H       1  UNL1        0.0628
     22 H           3.2689    1.7180   -1.7140 H       1  UNL1        0.0621
     23 H           3.9471    1.0252    1.9021 H       1  UNL1        0.0241
     24 H           3.0696   -0.4438    2.3649 H       1  UNL1        0.0241
     25 H           4.7594   -0.5452    1.8617 H       1  UNL1        0.0241
     26 H          -0.8452    2.8013   -1.1958 H       1  UNL1        0.0625
     27 H           1.3272    3.0986   -2.3478 H       1  UNL1        0.0618
     28 H          -1.2438   -0.5766   -1.3961 H       1  UNL1        0.0625
     29 H          -3.8257    0.5876    1.8837 H       1  UNL1        0.0625
     30 H          -2.9515   -2.1403   -2.1686 H       1  UNL1        0.0618
     31 H          -5.5228   -0.9972    1.0785 H       1  UNL1        0.0618
     32 H          -5.0976   -2.3663   -0.9459 H       1  UNL1        0.0618
     33 H           4.0358   -3.4322    0.1260 H       1  UNL1        0.2951
@<TRIPOS>BOND
     1     1    13    1
     2     1    33    1
     3     2    12    2
     4     3    13    2
     5     4     5    1
     6     4     9    1
     7     4    13    1
     8     4    20    1
     9     5     6   ar
    10     5     8   ar
    11     6     7   ar
    12     6    21    1
    13     7    10   ar
    14     7    12    1
    15     8    11   ar
    16     8    22    1
    17     9    23    1
    18     9    24    1
    19     9    25    1
    20    10    11   ar
    21    10    26    1
    22    11    27    1
    23    12    14    1
    24    14    15   ar
    25    14    16   ar
    26    15    17   ar
    27    15    28    1
    28    16    18   ar
    29    16    29    1
    30    17    19   ar
    31    17    30    1
    32    18    19   ar
    33    18    31    1
    34    19    32    1
