@<TRIPOS>MOLECULE
3825
   33    34     1     0     0
SMALL
bcc


@<TRIPOS>ATOM
      1 O            4.2050    -2.4800     0.2880 oh         1 UNL      -0.606100
      2 O1          -1.6050     1.7490     1.7880 o          1 UNL      -0.532100
      3 O2           2.1010    -2.1840    -0.4980 o          1 UNL      -0.550000
      4 C            3.3680    -0.2160     0.2000 c3         1 UNL      -0.055400
      5 C1           2.1960     0.6220    -0.1860 ca         1 UNL      -0.109300
      6 C2           0.9730     0.4540     0.4630 ca         1 UNL      -0.074000
      7 C3          -0.0870     1.2420     0.0820 ca         1 UNL      -0.166600
      8 C4           2.3240     1.5740    -1.1980 ca         1 UNL      -0.092000
      9 C5           3.8090    -0.0360     1.6670 c3         1 UNL      -0.092100
     10 C6           0.0050     2.1890    -0.9110 ca         1 UNL      -0.071000
     11 C7           1.2280     2.3570    -1.5600 ca         1 UNL      -0.145000
     12 C8          -1.3980     1.0620     0.7770 c          1 UNL       0.589300
     13 C9           3.1360    -1.7110    -0.0490 c          1 UNL       0.639100
     14 C10         -2.4080     0.1270     0.3070 ca         1 UNL      -0.172600
     15 C11         -2.1690    -0.6430    -0.8320 ca         1 UNL      -0.081000
     16 C12         -3.6150    -0.0000     0.9940 ca         1 UNL      -0.081000
     17 C13         -3.1370    -1.5400    -1.2820 ca         1 UNL      -0.141000
     18 C14         -4.5830    -0.8980     0.5430 ca         1 UNL      -0.141000
     19 C15         -4.3440    -1.6680    -0.5950 ca         1 UNL      -0.103000
     20 H            4.2200     0.0560    -0.4370 hc         1 UNL       0.087700
     21 H1           0.8580    -0.2820     1.2540 ha         1 UNL       0.162000
     22 H2           3.2690     1.7180    -1.7140 ha         1 UNL       0.137000
     23 H3           3.9470     1.0250     1.9020 hc         1 UNL       0.053033
     24 H4           3.0700    -0.4440     2.3650 hc         1 UNL       0.053033
     25 H5           4.7590    -0.5450     1.8620 hc         1 UNL       0.053033
     26 H6          -0.8450     2.8010    -1.1960 ha         1 UNL       0.154000
     27 H7           1.3270     3.0990    -2.3480 ha         1 UNL       0.140000
     28 H8          -1.2440    -0.5770    -1.3960 ha         1 UNL       0.146500
     29 H9          -3.8260     0.5880     1.8840 ha         1 UNL       0.146500
     30 H10         -2.9510    -2.1400    -2.1690 ha         1 UNL       0.137500
     31 H11         -5.5230    -0.9970     1.0790 ha         1 UNL       0.137500
     32 H12         -5.0980    -2.3660    -0.9460 ha         1 UNL       0.134000
     33 H13          4.0360    -3.4320     0.1260 ho         1 UNL       0.444000
@<TRIPOS>BOND
     1     1    13 1   
     2     1    33 1   
     3     2    12 2   
     4     3    13 2   
     5     4     5 1   
     6     4     9 1   
     7     4    13 1   
     8     4    20 1   
     9     5     6 ar  
    10     5     8 ar  
    11     6     7 ar  
    12     6    21 1   
    13     7    10 ar  
    14     7    12 1   
    15     8    11 ar  
    16     8    22 1   
    17     9    23 1   
    18     9    24 1   
    19     9    25 1   
    20    10    11 ar  
    21    10    26 1   
    22    11    27 1   
    23    12    14 1   
    24    14    15 ar  
    25    14    16 ar  
    26    15    17 ar  
    27    15    28 1   
    28    16    18 ar  
    29    16    29 1   
    30    17    19 ar  
    31    17    30 1   
    32    18    19 ar  
    33    18    31 1   
    34    19    32 1   
@<TRIPOS>SUBSTRUCTURE
     1 UNL         1 TEMP              0 ****  ****    0 ROOT
