@<TRIPOS>MOLECULE
173183
   77    80     1     0     0
SMALL
bcc


@<TRIPOS>ATOM
      1 O            7.9590     0.2880     1.3190 oh         1 UNL      -0.600800
      2 C           -0.5030     0.2290    -0.8790 c5         1 UNL      -0.045000
      3 C1           0.2460    -1.0010    -0.3280 c5         1 UNL      -0.064700
      4 C2           1.7620    -0.9340    -0.5430 c6         1 UNL      -0.046700
      5 C3           2.3260     0.3500     0.1320 c6         1 UNL      -0.048700
      6 C4          -1.9550    -0.1990    -0.5550 c5         1 UNL      -0.054700
      7 C5          -0.0050     1.4570    -0.1050 c6         1 UNL      -0.065400
      8 C6           3.8850     0.4860    -0.0960 c6         1 UNL       0.000200
      9 C7          -0.5260    -2.1840    -0.9030 c5         1 UNL      -0.074400
     10 C8           1.5180     1.6260    -0.2340 c6         1 UNL      -0.075400
     11 C9          -1.9880    -1.6990    -0.9330 c5         1 UNL      -0.077400
     12 C10          2.4480    -2.1800     0.0350 c6         1 UNL      -0.042200
     13 C11         -3.0650     0.6040    -1.2170 c3         1 UNL      -0.054700
     14 C12         -0.3130     0.4520    -2.4010 c3         1 UNL      -0.082100
     15 C13          4.5890    -0.8600     0.1300 c2         1 UNL      -0.105400
     16 C14          4.4380     1.5270     0.9230 c6         1 UNL      -0.070400
     17 C15          3.9270    -2.0280     0.1980 c2         1 UNL      -0.167200
     18 C16          4.2050     0.9570    -1.5350 c3         1 UNL      -0.083100
     19 C17          6.0920    -0.8350     0.2870 c6         1 UNL      -0.075200
     20 C18          5.9630     1.5710     1.0140 c6         1 UNL      -0.075400
     21 C19         -4.4430     0.0260    -0.8280 c3         1 UNL      -0.076400
     22 C20          6.5380     0.1940     1.3220 c6         1 UNL       0.145100
     23 C21         -2.9380     2.0840    -0.8450 c3         1 UNL      -0.090100
     24 C22         -4.6870    -0.0150     0.6850 c3         1 UNL      -0.078400
     25 C23         -6.0730    -0.5790     1.0800 c3         1 UNL      -0.061700
     26 C24         -7.2650     0.1090     0.3560 c3         1 UNL      -0.064700
     27 C25         -6.1960    -0.5520     2.6110 c3         1 UNL      -0.088100
     28 C26         -8.6100    -0.5180     0.7430 c3         1 UNL      -0.089100
     29 C27         -7.3280     1.6250     0.5660 c3         1 UNL      -0.089100
     30 H            0.0880    -1.0380     0.7630 hc         1 UNL       0.045700
     31 H1           1.9750    -0.9070    -1.6170 hc         1 UNL       0.058700
     32 H2           2.1720     0.2110     1.2140 hc         1 UNL       0.047700
     33 H3          -2.0560    -0.1290     0.5360 hc         1 UNL       0.048700
     34 H4          -0.2590     1.3660     0.9590 hc         1 UNL       0.041200
     35 H5          -0.4490     2.3890    -0.4540 hc         1 UNL       0.041200
     36 H6          -0.4180    -3.0820    -0.2870 hc         1 UNL       0.041700
     37 H7          -0.1860    -2.4330    -1.9140 hc         1 UNL       0.041700
     38 H8           1.7420     1.9420    -1.2580 hc         1 UNL       0.041200
     39 H9           1.8230     2.4540     0.4150 hc         1 UNL       0.041200
     40 H10         -2.4050    -1.8670    -1.9320 hc         1 UNL       0.041200
     41 H11         -2.5970    -2.2660    -0.2210 hc         1 UNL       0.041200
     42 H12          2.2540    -3.0340    -0.6250 hc         1 UNL       0.049200
     43 H13          2.0260    -2.4350     1.0150 hc         1 UNL       0.049200
     44 H14         -2.9980     0.5260    -2.3100 hc         1 UNL       0.047700
     45 H15         -0.7950     1.3760    -2.7340 hc         1 UNL       0.035700
     46 H16          0.7390     0.5370    -2.6840 hc         1 UNL       0.035700
     47 H17         -0.7320    -0.3640    -2.9970 hc         1 UNL       0.035700
     48 H18          4.0480     1.3030     1.9250 hc         1 UNL       0.044700
     49 H19          4.0810     2.5330     0.6720 hc         1 UNL       0.044700
     50 H20          4.4780    -2.9470     0.3820 ha         1 UNL       0.119000
     51 H21          3.7400     0.3110    -2.2870 hc         1 UNL       0.037367
     52 H22          3.8610     1.9800    -1.7120 hc         1 UNL       0.037367
     53 H23          5.2800     0.9590    -1.7430 hc         1 UNL       0.037367
     54 H24          6.4840    -1.8190     0.5750 hc         1 UNL       0.051200
     55 H25          6.5600    -0.6190    -0.6820 hc         1 UNL       0.051200
     56 H26          6.3940     1.9630     0.0840 hc         1 UNL       0.055200
     57 H27          6.2670     2.2790     1.7950 hc         1 UNL       0.055200
     58 H28         -5.2020     0.6440    -1.3200 hc         1 UNL       0.038700
     59 H29         -4.5630    -0.9820    -1.2420 hc         1 UNL       0.038700
     60 H30          6.2250    -0.1190     2.3260 h1         1 UNL       0.035700
     61 H31         -3.8860     2.6020    -1.0340 hc         1 UNL       0.033700
     62 H32         -2.2050     2.5980    -1.4700 hc         1 UNL       0.033700
     63 H33         -2.6990     2.2350     0.2120 hc         1 UNL       0.033700
     64 H34         -3.9410    -0.6530     1.1710 hc         1 UNL       0.042700
     65 H35         -4.5650     0.9870     1.1120 hc         1 UNL       0.042700
     66 H36         -6.0840    -1.6370     0.7800 hc         1 UNL       0.045700
     67 H37          8.3110    -0.5960     1.5210 ho         1 UNL       0.398000
     68 H38         -7.1550    -0.0700    -0.7200 hc         1 UNL       0.045700
     69 H39         -7.1010    -1.0620     2.9520 hc         1 UNL       0.033367
     70 H40         -6.2100     0.4720     2.9980 hc         1 UNL       0.033367
     71 H41         -5.3470    -1.0680     3.0740 hc         1 UNL       0.033367
     72 H42         -8.5790    -1.6070     0.6350 hc         1 UNL       0.032867
     73 H43         -9.4070    -0.1440     0.0910 hc         1 UNL       0.032867
     74 H44         -8.8920    -0.2790     1.7730 hc         1 UNL       0.032867
     75 H45         -8.1640     2.0540     0.0020 hc         1 UNL       0.032867
     76 H46         -7.4770     1.8810     1.6200 hc         1 UNL       0.032867
     77 H47         -6.4180     2.1220     0.2200 hc         1 UNL       0.032867
@<TRIPOS>BOND
     1     1    22 1   
     2     1    67 1   
     3     2     3 1   
     4     2     6 1   
     5     2     7 1   
     6     2    14 1   
     7     3     4 1   
     8     3     9 1   
     9     3    30 1   
    10     4     5 1   
    11     4    12 1   
    12     4    31 1   
    13     5     8 1   
    14     5    10 1   
    15     5    32 1   
    16     6    11 1   
    17     6    13 1   
    18     6    33 1   
    19     7    10 1   
    20     7    34 1   
    21     7    35 1   
    22     8    15 1   
    23     8    16 1   
    24     8    18 1   
    25     9    11 1   
    26     9    36 1   
    27     9    37 1   
    28    10    38 1   
    29    10    39 1   
    30    11    40 1   
    31    11    41 1   
    32    12    17 1   
    33    12    42 1   
    34    12    43 1   
    35    13    21 1   
    36    13    23 1   
    37    13    44 1   
    38    14    45 1   
    39    14    46 1   
    40    14    47 1   
    41    15    17 2   
    42    15    19 1   
    43    16    20 1   
    44    16    48 1   
    45    16    49 1   
    46    17    50 1   
    47    18    51 1   
    48    18    52 1   
    49    18    53 1   
    50    19    22 1   
    51    19    54 1   
    52    19    55 1   
    53    20    22 1   
    54    20    56 1   
    55    20    57 1   
    56    21    24 1   
    57    21    58 1   
    58    21    59 1   
    59    22    60 1   
    60    23    61 1   
    61    23    62 1   
    62    23    63 1   
    63    24    25 1   
    64    24    64 1   
    65    24    65 1   
    66    25    26 1   
    67    25    27 1   
    68    25    66 1   
    69    26    28 1   
    70    26    29 1   
    71    26    68 1   
    72    27    69 1   
    73    27    70 1   
    74    27    71 1   
    75    28    72 1   
    76    28    73 1   
    77    28    74 1   
    78    29    75 1   
    79    29    76 1   
    80    29    77 1   
@<TRIPOS>SUBSTRUCTURE
     1 UNL         1 TEMP              0 ****  ****    0 ROOT
