@<TRIPOS>MOLECULE
190
   15    16     1     0     0
SMALL
bcc


@<TRIPOS>ATOM
      1 N           -1.1990    -1.4000     0.0000 na         1 UNL      -0.262300
      2 N1          -2.0750     0.6500     0.0000 nc         1 UNL      -0.625700
      3 N2           0.0340     1.8590    -0.0000 nb         1 UNL      -0.653000
      4 N3           2.0000     0.4150     0.0000 nb         1 UNL      -0.749000
      5 N4           1.8240    -1.9760     0.0000 nv         1 UNL      -0.918500
      6 C           -0.1360    -0.5420     0.0000 ca         1 UNL      -0.360800
      7 C1          -0.7060     0.7240     0.0000 ca         1 UNL       0.572300
      8 C2           1.2360    -0.7000     0.0000 ca         1 UNL       0.667200
      9 C3          -2.3390    -0.6390     0.0000 cd         1 UNL       0.435700
     10 C4           1.3610     1.6090     0.0000 ca         1 UNL       0.645900
     11 H           -1.1570    -2.4100    -0.0000 hn         1 UNL       0.309700
     12 H1          -3.3220    -1.0860    -0.0000 h5         1 UNL       0.074800
     13 H2           2.0030     2.4830    -0.0000 h5         1 UNL       0.057100
     14 H3           2.8320    -2.0530     0.0000 hn         1 UNL       0.402800
     15 H4           1.2500    -2.8080     0.0000 hn         1 UNL       0.402800
@<TRIPOS>BOND
     1     1     6 1   
     2     1     9 1   
     3     1    11 1   
     4     2     7 1   
     5     2     9 2   
     6     3     7 ar  
     7     3    10 ar  
     8     4     8 ar  
     9     4    10 ar  
    10     5     8 1   
    11     5    14 1   
    12     5    15 1   
    13     6     7 ar  
    14     6     8 ar  
    15     9    12 1   
    16    10    13 1   
@<TRIPOS>SUBSTRUCTURE
     1 UNL         1 TEMP              0 ****  ****    0 ROOT
