@<TRIPOS>MOLECULE
5997
   74    77     1     0     0
SMALL
bcc


@<TRIPOS>ATOM
      1 O            7.5000     1.5830    -0.3200 oh         1 UNL      -0.600800
      2 C           -0.8180    -1.1080    -0.2030 c5         1 UNL      -0.045000
      3 C1          -0.1190    -0.4370     0.9960 c5         1 UNL      -0.064700
      4 C2           1.4070    -0.5650     0.9580 c6         1 UNL      -0.046700
      5 C3           1.9480     0.0600    -0.3610 c6         1 UNL      -0.048700
      6 C4          -2.2920    -0.8440     0.1890 c5         1 UNL      -0.054700
      7 C5          -0.3510    -0.3840    -1.4730 c6         1 UNL      -0.065400
      8 C6           3.5190    -0.0820    -0.4670 c6         1 UNL       0.000200
      9 C7          -0.8720    -0.9820     2.2060 c5         1 UNL      -0.074400
     10 C8           1.1800    -0.4330    -1.6190 c6         1 UNL      -0.075400
     11 C9          -2.3230    -1.1290     1.7090 c5         1 UNL      -0.077400
     12 C10          2.0420     0.1300     2.1710 c6         1 UNL      -0.042200
     13 C11         -3.3510    -1.6210    -0.5810 c3         1 UNL      -0.054700
     14 C12         -0.5360    -2.6260    -0.3280 c3         1 UNL      -0.082100
     15 C13          4.1900     0.2690     0.8690 c2         1 UNL      -0.105400
     16 C14          4.0250     0.9000    -1.5650 c6         1 UNL      -0.070400
     17 C15          3.5100     0.3710     2.0240 c2         1 UNL      -0.167200
     18 C16          3.9300    -1.5260    -0.8430 c3         1 UNL      -0.083100
     19 C17          5.6820     0.5130     0.8480 c6         1 UNL      -0.075200
     20 C18          5.5420     1.0790    -1.6010 c6         1 UNL      -0.075400
     21 C19         -4.7870    -1.2760    -0.1340 c3         1 UNL      -0.076400
     22 C20          6.0800     1.5070    -0.2400 c6         1 UNL       0.145100
     23 C21         -3.2110    -1.3510    -2.0840 c3         1 UNL      -0.090100
     24 C22         -5.1860     0.2030    -0.2340 c3         1 UNL      -0.080400
     25 C23         -6.5950     0.4920     0.2930 c3         1 UNL      -0.073400
     26 C24         -7.0210     1.9640     0.1270 c3         1 UNL      -0.065700
     27 C25         -6.9610     2.4320    -1.3280 c3         1 UNL      -0.089100
     28 C26         -6.1320     2.8610     0.9920 c3         1 UNL      -0.089100
     29 H           -0.3420     0.6430     0.9620 hc         1 UNL       0.045700
     30 H1           1.6830    -1.6250     1.0010 hc         1 UNL       0.058700
     31 H2           1.7290     1.1380    -0.2920 hc         1 UNL       0.047700
     32 H3          -2.4680     0.2320     0.0540 hc         1 UNL       0.048700
     33 H4          -0.6680     0.6670    -1.4520 hc         1 UNL       0.041200
     34 H5          -0.7590    -0.8150    -2.3870 hc         1 UNL       0.041200
     35 H6          -0.8130    -0.3060     3.0650 hc         1 UNL       0.041700
     36 H7          -0.4760    -1.9540     2.5210 hc         1 UNL       0.041700
     37 H8           1.4680    -1.4580    -1.8670 hc         1 UNL       0.041200
     38 H9           1.4580     0.1810    -2.4830 hc         1 UNL       0.041200
     39 H10         -2.6870    -2.1380     1.9350 hc         1 UNL       0.041200
     40 H11         -2.9830    -0.4200     2.2200 hc         1 UNL       0.041200
     41 H12          1.8750    -0.4860     3.0640 hc         1 UNL       0.049200
     42 H13          1.5600     1.0970     2.3600 hc         1 UNL       0.049200
     43 H14         -3.2280    -2.6990    -0.4180 hc         1 UNL       0.046700
     44 H15         -0.9840    -3.0470    -1.2330 hc         1 UNL       0.035700
     45 H16          0.5320    -2.8510    -0.3830 hc         1 UNL       0.035700
     46 H17         -0.9300    -3.1940     0.5200 hc         1 UNL       0.035700
     47 H18          3.5740     1.8900    -1.4090 hc         1 UNL       0.044700
     48 H19          3.6970     0.5660    -2.5570 hc         1 UNL       0.044700
     49 H20          4.0370     0.6440     2.9340 ha         1 UNL       0.119000
     50 H21          3.6100    -1.7870    -1.8570 hc         1 UNL       0.037367
     51 H22          5.0150    -1.6690    -0.8220 hc         1 UNL       0.037367
     52 H23          3.5010    -2.2630    -0.1550 hc         1 UNL       0.037367
     53 H24          6.0430     0.8850     1.8160 hc         1 UNL       0.051200
     54 H25          6.2090    -0.4370     0.6980 hc         1 UNL       0.051200
     55 H26          6.0330     0.1540    -1.9290 hc         1 UNL       0.055200
     56 H27          5.8090     1.8310    -2.3530 hc         1 UNL       0.055200
     57 H28         -5.4970    -1.8730    -0.7220 hc         1 UNL       0.038200
     58 H29         -4.9220    -1.6030     0.9040 hc         1 UNL       0.038200
     59 H30          5.7050     2.5080     0.0050 h1         1 UNL       0.035700
     60 H31         -3.0370    -0.2940    -2.3070 hc         1 UNL       0.033700
     61 H32         -4.1280    -1.6410    -2.6110 hc         1 UNL       0.033700
     62 H33         -2.4270    -1.9620    -2.5340 hc         1 UNL       0.033700
     63 H34         -4.4750     0.8060     0.3360 hc         1 UNL       0.043200
     64 H35         -5.1070     0.5080    -1.2820 hc         1 UNL       0.043200
     65 H36          7.8280     1.8600     0.5520 ho         1 UNL       0.398000
     66 H37         -6.6570     0.2080     1.3510 hc         1 UNL       0.037200
     67 H38         -7.3120    -0.1420    -0.2430 hc         1 UNL       0.037200
     68 H39         -8.0560     2.0550     0.4800 hc         1 UNL       0.041700
     69 H40         -7.5100     1.7460    -1.9820 hc         1 UNL       0.033200
     70 H41         -7.4210     3.4220    -1.4250 hc         1 UNL       0.033200
     71 H42         -5.9350     2.5170    -1.6990 hc         1 UNL       0.033200
     72 H43         -6.1070     2.5090     2.0290 hc         1 UNL       0.033200
     73 H44         -6.5260     3.8840     1.0010 hc         1 UNL       0.033200
     74 H45         -5.1040     2.9160     0.6210 hc         1 UNL       0.033200
@<TRIPOS>BOND
     1     1    22 1   
     2     1    65 1   
     3     2     3 1   
     4     2     6 1   
     5     2     7 1   
     6     2    14 1   
     7     3     4 1   
     8     3     9 1   
     9     3    29 1   
    10     4     5 1   
    11     4    12 1   
    12     4    30 1   
    13     5     8 1   
    14     5    10 1   
    15     5    31 1   
    16     6    11 1   
    17     6    13 1   
    18     6    32 1   
    19     7    10 1   
    20     7    33 1   
    21     7    34 1   
    22     8    15 1   
    23     8    16 1   
    24     8    18 1   
    25     9    11 1   
    26     9    35 1   
    27     9    36 1   
    28    10    37 1   
    29    10    38 1   
    30    11    39 1   
    31    11    40 1   
    32    12    17 1   
    33    12    41 1   
    34    12    42 1   
    35    13    21 1   
    36    13    23 1   
    37    13    43 1   
    38    14    44 1   
    39    14    45 1   
    40    14    46 1   
    41    15    17 2   
    42    15    19 1   
    43    16    20 1   
    44    16    47 1   
    45    16    48 1   
    46    17    49 1   
    47    18    50 1   
    48    18    51 1   
    49    18    52 1   
    50    19    22 1   
    51    19    53 1   
    52    19    54 1   
    53    20    22 1   
    54    20    55 1   
    55    20    56 1   
    56    21    24 1   
    57    21    57 1   
    58    21    58 1   
    59    22    59 1   
    60    23    60 1   
    61    23    61 1   
    62    23    62 1   
    63    24    25 1   
    64    24    63 1   
    65    24    64 1   
    66    25    26 1   
    67    25    66 1   
    68    25    67 1   
    69    26    27 1   
    70    26    28 1   
    71    26    68 1   
    72    27    69 1   
    73    27    70 1   
    74    27    71 1   
    75    28    72 1   
    76    28    73 1   
    77    28    74 1   
@<TRIPOS>SUBSTRUCTURE
     1 UNL         1 TEMP              0 ****  ****    0 ROOT
