@<TRIPOS>MOLECULE
6306
   22    21     1     0     0
SMALL
bcc


@<TRIPOS>ATOM
      1 O            1.7320     1.0710    -1.2230 oh         1 ILE      -0.602100
      2 OXT          2.2590     0.4780     0.9010 o          1 ILE      -0.562000
      3 N            0.6280    -1.6110     0.9260 n8         1 ILE      -0.892800
      4 CB          -0.8500    -0.1970    -0.5110 c3         1 ILE      -0.057700
      5 CA           0.5600    -0.8010    -0.2930 c3         1 ILE       0.138500
      6 CG1         -1.3280     0.7160     0.6420 c3         1 ILE      -0.088400
      7 CG2         -1.8910    -1.2950    -0.7790 c3         1 ILE      -0.087100
      8 CD1         -2.7050     1.3370     0.4490 c3         1 ILE      -0.092100
      9 C            1.5950     0.3010    -0.1120 c          1 ILE       0.585100
     10 HB          -0.8060     0.4240    -1.4170 hc         1 ILE       0.066700
     11 HA           0.8580    -1.4200    -1.1470 h1         1 ILE       0.091700
     12 HG11        -0.6100     1.5340     0.7760 hc         1 ILE       0.047200
     13 HG12        -1.3470     0.1600     1.5870 hc         1 ILE       0.047200
     14 HG21        -1.5240    -1.9960    -1.5370 hc         1 ILE       0.041700
     15 HG22        -2.1190    -1.8650     0.1270 hc         1 ILE       0.041700
     16 HG23        -2.8260    -0.8740    -1.1630 hc         1 ILE       0.041700
     17 HD11        -2.7680     1.8590    -0.5120 hc         1 ILE       0.035700
     18 HD12        -2.9030     2.0650     1.2420 hc         1 ILE       0.035700
     19 HD13        -3.4980     0.5850     0.4910 hc         1 ILE       0.035700
     20 H1           0.4730    -1.0330     1.7500 hn         1 ILE       0.364800
     21 H2           1.5630    -2.0060     1.0260 hn         1 ILE       0.364800
     22 H            2.4080     1.7710    -1.1010 ho         1 ILE       0.443000
@<TRIPOS>BOND
     1     1     9 1   
     2     1    22 1   
     3     2     9 2   
     4     3     5 1   
     5     3    20 1   
     6     3    21 1   
     7     4     5 1   
     8     4     6 1   
     9     4     7 1   
    10     4    10 1   
    11     5     9 1   
    12     5    11 1   
    13     6     8 1   
    14     6    12 1   
    15     6    13 1   
    16     7    14 1   
    17     7    15 1   
    18     7    16 1   
    19     8    17 1   
    20     8    18 1   
    21     8    19 1   
@<TRIPOS>SUBSTRUCTURE
     1 ILE         1 TEMP              0 ****  ****    0 ROOT
