@<TRIPOS>MOLECULE
6057
   24    24     1     0     0
SMALL
bcc


@<TRIPOS>ATOM
      1 O           -1.7730    -1.6310    -0.9930 oh         1 TYR      -0.591100
      2 OH           4.2180    -0.6350    -0.3950 oh         1 TYR      -0.496100
      3 OXT         -3.4800    -1.1580     0.4230 o          1 TYR      -0.557000
      4 N           -3.2390     1.4950    -0.2350 n8         1 TYR      -0.902800
      5 CB          -1.0490     1.0210     0.7630 c3         1 TYR      -0.069100
      6 CA          -2.0480     0.6550    -0.3460 c3         1 TYR       0.131500
      7 CG           0.3620     0.5770     0.4530 ca         1 TYR      -0.127300
      8 CD1          0.7800    -0.6800     0.8550 ca         1 TYR      -0.085000
      9 CD2          1.2080     1.4370    -0.2280 ca         1 TYR      -0.085000
     10 C           -2.5200    -0.7850    -0.2380 c          1 TYR       0.646100
     11 CE1          2.0830    -1.0890     0.5690 ca         1 TYR      -0.183000
     12 CE2          2.5100     1.0280    -0.5140 ca         1 TYR      -0.183000
     13 CZ           2.9480    -0.2350    -0.1160 ca         1 TYR       0.128100
     14 HB1         -1.3630     0.5950     1.7260 hc         1 TYR       0.061700
     15 HB2         -1.0320     2.1090     0.9190 hc         1 TYR       0.061700
     16 HA          -1.6250     0.8140    -1.3450 h1         1 TYR       0.096700
     17 HD1          0.1160    -1.3510     1.3910 ha         1 TYR       0.136500
     18 HD2          0.8750     2.4220    -0.5440 ha         1 TYR       0.136500
     19 H1          -2.9780     2.4740    -0.3490 hn         1 TYR       0.363300
     20 H2          -3.6300     1.4190     0.7040 hn         1 TYR       0.363300
     21 HE1          2.4110    -2.0750     0.8850 ha         1 TYR       0.144000
     22 HE2          3.1790     1.6970    -1.0480 ha         1 TYR       0.144000
     23 H           -2.0910    -2.5570    -0.9280 ho         1 TYR       0.444000
     24 HH           4.3490    -1.5340    -0.0470 ho         1 TYR       0.420000
@<TRIPOS>BOND
     1     1    10 1   
     2     1    23 1   
     3     2    13 1   
     4     2    24 1   
     5     3    10 2   
     6     4     6 1   
     7     4    19 1   
     8     4    20 1   
     9     5     6 1   
    10     5     7 1   
    11     5    14 1   
    12     5    15 1   
    13     6    10 1   
    14     6    16 1   
    15     7     8 ar  
    16     7     9 ar  
    17     8    11 ar  
    18     8    17 1   
    19     9    12 ar  
    20     9    18 1   
    21    11    13 ar  
    22    11    21 1   
    23    12    13 ar  
    24    12    22 1   
@<TRIPOS>SUBSTRUCTURE
     1 TYR         1 TEMP              0 ****  ****    0 ROOT
