@<TRIPOS>MOLECULE
6013
   49    52     1     0     0
SMALL
bcc


@<TRIPOS>ATOM
      1 O           -5.1690     1.0640     0.3610 oh         1 UNL      -0.588800
      2 O1           5.5930    -0.1430     0.9670 o          1 UNL      -0.535100
      3 C           -1.9990    -0.7360     0.3560 c5         1 UNL      -0.063700
      4 C1          -2.7810     0.5500     0.0270 c5         1 UNL      -0.084000
      5 C2          -0.6210    -0.7770    -0.3130 c6         1 UNL      -0.049700
      6 C3           0.2140     0.4460     0.1820 c6         1 UNL      -0.047700
      7 C4           1.6730     0.4720    -0.4170 c6         1 UNL      -0.015800
      8 C5          -1.9900     1.7420     0.5810 c6         1 UNL      -0.061400
      9 C6          -0.5600     1.7830     0.0140 c6         1 UNL      -0.076400
     10 C7          -4.0930     0.2440     0.7740 c5         1 UNL       0.145100
     11 C8          -3.0020    -1.8480     0.0630 c5         1 UNL      -0.073400
     12 C9           0.1170    -2.0830     0.0070 c6         1 UNL      -0.072400
     13 C10         -4.3590    -1.2440     0.4680 c5         1 UNL      -0.114400
     14 C11          2.3270    -0.9040    -0.2370 c2         1 UNL      -0.028400
     15 C12          1.4990    -2.1050    -0.6320 c6         1 UNL      -0.054200
     16 C13         -3.0590     0.7690    -1.4820 c3         1 UNL      -0.090100
     17 C14          2.4940     1.5540     0.3430 c6         1 UNL      -0.070400
     18 C15          1.6730     0.8120    -1.9250 c3         1 UNL      -0.085100
     19 C16          3.9960     1.4370     0.1370 c6         1 UNL      -0.182400
     20 C17          3.5760    -1.0890     0.2210 ce         1 UNL      -0.265200
     21 C18          4.4700     0.0570     0.5070 c          1 UNL       0.569300
     22 H           -1.8230    -0.7660     1.4450 hc         1 UNL       0.049700
     23 H1          -0.7470    -0.7250    -1.3990 hc         1 UNL       0.056700
     24 H2           0.3290     0.3090     1.2700 hc         1 UNL       0.051700
     25 H3          -1.9290     1.6770     1.6750 hc         1 UNL       0.047200
     26 H4          -2.5030     2.6850     0.3560 hc         1 UNL       0.047200
     27 H5          -0.6040     2.0660    -1.0420 hc         1 UNL       0.043200
     28 H6          -0.0250     2.5910     0.5260 hc         1 UNL       0.043200
     29 H7          -3.9660     0.3780     1.8550 h1         1 UNL       0.078700
     30 H8          -2.7860    -2.7570     0.6330 hc         1 UNL       0.044700
     31 H9          -3.0060    -2.1150    -1.0000 hc         1 UNL       0.044700
     32 H10         -0.4560    -2.9410    -0.3650 hc         1 UNL       0.047700
     33 H11          0.2100    -2.2100     1.0930 hc         1 UNL       0.047700
     34 H12         -5.0990    -1.3850    -0.3270 hc         1 UNL       0.049700
     35 H13         -4.7540    -1.7420     1.3600 hc         1 UNL       0.049700
     36 H14          1.3980    -2.1230    -1.7250 hc         1 UNL       0.055700
     37 H15          1.9980    -3.0420    -0.3560 hc         1 UNL       0.055700
     38 H16         -3.6680    -0.0290    -1.9170 hc         1 UNL       0.038700
     39 H17         -3.5950     1.7110    -1.6440 hc         1 UNL       0.038700
     40 H18         -2.1430     0.8240    -2.0760 hc         1 UNL       0.038700
     41 H19          2.2930     1.4750     1.4210 hc         1 UNL       0.051200
     42 H20          2.1810     2.5610     0.0430 hc         1 UNL       0.051200
     43 H21          0.9980     0.1670    -2.4960 hc         1 UNL       0.040700
     44 H22          1.3680     1.8480    -2.1050 hc         1 UNL       0.040700
     45 H23          2.6710     0.6930    -2.3650 hc         1 UNL       0.040700
     46 H24          4.5050     2.1630     0.7810 hc         1 UNL       0.071700
     47 H25          4.2830     1.6420    -0.8990 hc         1 UNL       0.071700
     48 H26          4.0000    -2.0790     0.3470 ha         1 UNL       0.148000
     49 H27         -5.4480     0.7930    -0.5290 ho         1 UNL       0.399000
@<TRIPOS>BOND
     1     1    10 1   
     2     1    49 1   
     3     2    21 2   
     4     3     4 1   
     5     3     5 1   
     6     3    11 1   
     7     3    22 1   
     8     4     8 1   
     9     4    10 1   
    10     4    16 1   
    11     5     6 1   
    12     5    12 1   
    13     5    23 1   
    14     6     7 1   
    15     6     9 1   
    16     6    24 1   
    17     7    14 1   
    18     7    17 1   
    19     7    18 1   
    20     8     9 1   
    21     8    25 1   
    22     8    26 1   
    23     9    27 1   
    24     9    28 1   
    25    10    13 1   
    26    10    29 1   
    27    11    13 1   
    28    11    30 1   
    29    11    31 1   
    30    12    15 1   
    31    12    32 1   
    32    12    33 1   
    33    13    34 1   
    34    13    35 1   
    35    14    15 1   
    36    14    20 2   
    37    15    36 1   
    38    15    37 1   
    39    16    38 1   
    40    16    39 1   
    41    16    40 1   
    42    17    19 1   
    43    17    41 1   
    44    17    42 1   
    45    18    43 1   
    46    18    44 1   
    47    18    45 1   
    48    19    21 1   
    49    19    46 1   
    50    19    47 1   
    51    20    21 1   
    52    20    48 1   
@<TRIPOS>SUBSTRUCTURE
     1 UNL         1 TEMP              0 ****  ****    0 ROOT
