@<TRIPOS>MOLECULE
6287
   19    18     1     0     0
SMALL
bcc


@<TRIPOS>ATOM
      1 O           -1.5450    -1.4730    -0.2630 oh         1 VAL      -0.602100
      2 OXT         -1.7310     0.3760     1.0300 o          1 VAL      -0.552000
      3 N           -0.2560     1.7670    -0.8570 n8         1 VAL      -0.898800
      4 CB           1.3800     0.0130    -0.2310 c3         1 VAL      -0.099700
      5 CA          -0.0460     0.3240    -0.7450 c3         1 VAL       0.129500
      6 CG1          1.7320    -1.4770    -0.1630 c3         1 VAL      -0.100100
      7 CG2          1.6520     0.6840     1.1200 c3         1 VAL      -0.100100
      8 C           -1.1860    -0.2140     0.1080 c          1 VAL       0.644100
      9 HB           2.0840     0.4570    -0.9500 hc         1 VAL       0.053700
     10 HA          -0.1590    -0.0970    -1.7520 h1         1 VAL       0.092700
     11 HG11         1.5570    -1.9580    -1.1300 hc         1 VAL       0.043533
     12 HG12         1.1290    -1.9950     0.5910 hc         1 VAL       0.043533
     13 HG13         2.7870    -1.6170     0.0970 hc         1 VAL       0.043533
     14 HG21         0.9890     0.2970     1.9010 hc         1 VAL       0.043533
     15 HG22         2.6820     0.4930     1.4400 hc         1 VAL       0.043533
     16 HG23         1.5290     1.7700     1.0720 hc         1 VAL       0.043533
     17 H1          -1.1410     1.9510    -1.3280 hn         1 VAL       0.363300
     18 H2           0.4680     2.1740    -1.4480 hn         1 VAL       0.363300
     19 H           -2.2750    -1.8230     0.2910 ho         1 VAL       0.444000
@<TRIPOS>BOND
     1     1     8 1   
     2     1    19 1   
     3     2     8 2   
     4     3     5 1   
     5     3    17 1   
     6     3    18 1   
     7     4     5 1   
     8     4     6 1   
     9     4     7 1   
    10     4     9 1   
    11     5     8 1   
    12     5    10 1   
    13     6    11 1   
    14     6    12 1   
    15     6    13 1   
    16     7    14 1   
    17     7    15 1   
    18     7    16 1   
@<TRIPOS>SUBSTRUCTURE
     1 VAL         1 TEMP              0 ****  ****    0 ROOT
