@<TRIPOS>MOLECULE
67296
   40    40     1     0     0
SMALL
bcc


@<TRIPOS>ATOM
      1 O            3.2480    -2.2010    -0.0370 oh         1 UNL      -0.499100
      2 C           -1.9560     0.0340     0.1890 c3         1 UNL      -0.078400
      3 C1          -3.3170    -0.0600    -0.5060 c3         1 UNL      -0.079400
      4 C2          -0.7720    -0.0540    -0.7800 c3         1 UNL      -0.079400
      5 C3          -4.4630     0.0570     0.5030 c3         1 UNL      -0.079400
      6 C4           0.5870     0.1140    -0.0920 c3         1 UNL      -0.074400
      7 C5          -5.8230     0.0030    -0.1970 c3         1 UNL      -0.079400
      8 C6           1.7660     0.0130    -1.0680 c3         1 UNL      -0.031100
      9 C7          -7.0060     0.0840     0.7700 c3         1 UNL      -0.080400
     10 C8           3.1140     0.1630    -0.4100 ca         1 UNL      -0.098300
     11 C9          -8.3590     0.1020     0.0750 c3         1 UNL      -0.092100
     12 C10          3.7830    -0.9530     0.0710 ca         1 UNL       0.124100
     13 C11          3.6650     1.4320    -0.2990 ca         1 UNL      -0.099000
     14 C12          5.0300    -0.7960     0.6780 ca         1 UNL      -0.211000
     15 C13          4.9110     1.5880     0.3070 ca         1 UNL      -0.162000
     16 C14          5.5930     0.4740     0.7960 ca         1 UNL      -0.095000
     17 H           -1.8970     0.9820     0.7380 hc         1 UNL       0.039700
     18 H1          -1.8710    -0.7680     0.9330 hc         1 UNL       0.039700
     19 H2          -3.3900    -1.0130    -1.0420 hc         1 UNL       0.039200
     20 H3          -3.4000     0.7390    -1.2520 hc         1 UNL       0.039200
     21 H4          -0.8800     0.7190    -1.5500 hc         1 UNL       0.039700
     22 H5          -0.8010    -1.0220    -1.2950 hc         1 UNL       0.039700
     23 H6          -4.3940    -0.7570     1.2350 hc         1 UNL       0.039200
     24 H7          -4.3760     1.0000     1.0560 hc         1 UNL       0.039200
     25 H8           0.6160     1.0840     0.4190 hc         1 UNL       0.042700
     26 H9           0.6920    -0.6510     0.6880 hc         1 UNL       0.042700
     27 H10         -5.8990    -0.9270    -0.7750 hc         1 UNL       0.039700
     28 H11         -5.8900     0.8280    -0.9160 hc         1 UNL       0.039700
     29 H12          1.6580     0.7830    -1.8450 hc         1 UNL       0.055700
     30 H13          1.7190    -0.9400    -1.6100 hc         1 UNL       0.055700
     31 H14         -6.9130     0.9900     1.3810 hc         1 UNL       0.038200
     32 H15         -6.9710    -0.7680     1.4590 hc         1 UNL       0.038200
     33 H16         -9.1650     0.1600     0.8120 hc         1 UNL       0.032367
     34 H17         -8.5040    -0.8050    -0.5190 hc         1 UNL       0.032367
     35 H18         -8.4440     0.9670    -0.5920 hc         1 UNL       0.032367
     36 H19          3.1410     2.3070    -0.6730 ha         1 UNL       0.135000
     37 H20          5.5730    -1.6550     1.0620 ha         1 UNL       0.132000
     38 H21          5.3500     2.5780     0.4000 ha         1 UNL       0.133000
     39 H22          6.5640     0.5960     1.2680 ha         1 UNL       0.132000
     40 H23          3.8610    -2.8450     0.3560 ho         1 UNL       0.418000
@<TRIPOS>BOND
     1     1    12 1   
     2     1    40 1   
     3     2     3 1   
     4     2     4 1   
     5     2    17 1   
     6     2    18 1   
     7     3     5 1   
     8     3    19 1   
     9     3    20 1   
    10     4     6 1   
    11     4    21 1   
    12     4    22 1   
    13     5     7 1   
    14     5    23 1   
    15     5    24 1   
    16     6     8 1   
    17     6    25 1   
    18     6    26 1   
    19     7     9 1   
    20     7    27 1   
    21     7    28 1   
    22     8    10 1   
    23     8    29 1   
    24     8    30 1   
    25     9    11 1   
    26     9    31 1   
    27     9    32 1   
    28    10    12 ar  
    29    10    13 ar  
    30    11    33 1   
    31    11    34 1   
    32    11    35 1   
    33    12    14 ar  
    34    13    15 ar  
    35    13    36 1   
    36    14    16 ar  
    37    14    37 1   
    38    15    16 ar  
    39    15    38 1   
    40    16    39 1   
@<TRIPOS>SUBSTRUCTURE
     1 UNL         1 TEMP              0 ****  ****    0 ROOT
