@<TRIPOS>MOLECULE
424
   16    15     1     0     0
SMALL
bcc


@<TRIPOS>ATOM
      1 O           -0.6610     1.5960     0.8950 oh         1 ASP      -0.596100
      2 OD1          2.0100    -0.1570     1.1210 oh         1 ASP      -0.605100
      3 OXT         -1.9740     0.9720    -0.8430 o          1 ASP      -0.550000
      4 OD2          2.2170     0.5660    -1.0220 o          1 ASP      -0.539000
      5 N           -1.8030    -1.6940     0.0970 n8         1 ASP      -0.897800
      6 CA          -0.7470    -0.7450     0.3520 c3         1 ASP       0.143500
      7 CB           0.5030    -1.0780    -0.4680 c3         1 ASP      -0.127400
      8 C           -1.2000     0.6760     0.0590 c          1 ASP       0.580100
      9 CG           1.6560    -0.1350    -0.1910 c          1 ASP       0.637100
     10 HA          -0.5150    -0.8000     1.4220 h1         1 ASP       0.114700
     11 HB1          0.2840    -1.0170    -1.5410 hc         1 ASP       0.099700
     12 HB2          0.8510    -2.0990    -0.2670 hc         1 ASP       0.099700
     13 H1          -2.0700    -1.6720    -0.8870 hn         1 ASP       0.370300
     14 H2          -2.6360    -1.4460     0.6290 hn         1 ASP       0.370300
     15 H           -0.9650     2.5040     0.6860 ho         1 ASP       0.449000
     16 HD1          2.7560     0.4520     1.3080 ho         1 ASP       0.449000
@<TRIPOS>BOND
     1     1     8 1   
     2     1    15 1   
     3     2     9 1   
     4     2    16 1   
     5     3     8 2   
     6     4     9 2   
     7     5     6 1   
     8     5    13 1   
     9     5    14 1   
    10     6     7 1   
    11     6     8 1   
    12     6    10 1   
    13     7     9 1   
    14     7    11 1   
    15     7    12 1   
@<TRIPOS>SUBSTRUCTURE
     1 ASP         1 TEMP              0 ****  ****    0 ROOT
