@<TRIPOS>MOLECULE
1174
   12    12     1     0     0
SMALL
bcc


@<TRIPOS>ATOM
      1 O            2.3260     0.9650     0.0000 o          1 UNL      -0.636500
      2 O1          -2.2970     1.0230     0.0010 o          1 UNL      -0.605500
      3 N            0.0180     1.0200    -0.0000 ns         1 UNL      -0.585500
      4 N1           1.1640    -1.0220     0.0000 ns         1 UNL      -0.475100
      5 C            1.2520     0.3630     0.0000 c          1 UNL       0.803500
      6 C1          -1.2320     0.4140    -0.0000 c          1 UNL       0.714700
      7 C2          -0.0270    -1.6960     0.0000 cc         1 UNL       0.050600
      8 C3          -1.2050    -1.0680    -0.0000 cd         1 UNL      -0.319200
      9 H            0.0380     2.0360    -0.0000 hn         1 UNL       0.353500
     10 H1           2.0190    -1.5700     0.0000 hn         1 UNL       0.354500
     11 H2          -2.1440    -1.6060    -0.0000 ha         1 UNL       0.180000
     12 H3           0.0470    -2.7760     0.0000 h4         1 UNL       0.163000
@<TRIPOS>BOND
     1     1     5 2   
     2     2     6 2   
     3     3     5 1   
     4     3     6 1   
     5     3     9 1   
     6     4     5 1   
     7     4     7 1   
     8     4    10 1   
     9     6     8 1   
    10     7     8 2   
    11     7    12 1   
    12     8    11 1   
@<TRIPOS>SUBSTRUCTURE
     1 UNL         1 TEMP              0 ****  ****    0 ROOT
