@<TRIPOS>MOLECULE
439577
   72    75     1     0     0
SMALL
bcc


@<TRIPOS>ATOM
      1 O            7.6720    -0.5790     1.1900 oh         1 UNL      -0.600800
      2 C           -0.7690     0.7580    -0.6530 c5         1 UNL      -0.045000
      3 C1          -0.1270    -0.6390    -0.5540 c5         1 UNL      -0.064700
      4 C2           1.3890    -0.6270    -0.7810 c6         1 UNL      -0.046700
      5 C3           2.0620     0.3170     0.2570 c6         1 UNL      -0.048700
      6 C4          -2.2520     0.3650    -0.4420 c5         1 UNL      -0.054700
      7 C5          -0.1670     1.6230     0.4630 c6         1 UNL      -0.065400
      8 C6           3.6260     0.3940     0.0390 c6         1 UNL       0.000200
      9 C7          -0.9990    -1.5050    -1.4590 c5         1 UNL      -0.074400
     10 C8           1.3650     1.7030     0.3490 c6         1 UNL      -0.075400
     11 C9          -2.4130    -0.9210    -1.2850 c5         1 UNL      -0.078400
     12 C10          1.9680    -2.0450    -0.6600 c6         1 UNL      -0.042200
     13 C11         -3.2910     1.4260    -0.7740 c3         1 UNL      -0.055700
     14 C12         -0.5650     1.4500    -2.0240 c3         1 UNL      -0.082100
     15 C13          4.2130    -1.0030    -0.2060 c2         1 UNL      -0.105400
     16 C14          4.2690     0.9990     1.3230 c6         1 UNL      -0.070400
     17 C15          3.4540    -2.0730    -0.5010 c2         1 UNL      -0.167200
     18 C16          3.9820     1.2820    -1.1780 c3         1 UNL      -0.083100
     19 C17          5.7130    -1.1510    -0.0950 c6         1 UNL      -0.075200
     20 C18          5.7920     0.8890     1.3780 c6         1 UNL      -0.075400
     21 C19         -4.7350     0.9460    -0.5100 c3         1 UNL      -0.074400
     22 C20          6.2480    -0.5550     1.2040 c6         1 UNL       0.145100
     23 C21         -3.0220     2.6950     0.0450 c3         1 UNL      -0.090100
     24 C22         -5.0510     0.5910     0.9500 c3         1 UNL      -0.047200
     25 C23         -6.4850     0.1860     1.1520 c2         1 UNL      -0.175200
     26 C24         -7.0430    -1.0280     0.9840 c2         1 UNL      -0.126400
     27 C25         -8.5120    -1.2300     1.2480 c3         1 UNL      -0.057400
     28 C26         -6.3220    -2.2680     0.5390 c3         1 UNL      -0.057400
     29 H           -0.2850    -1.0170     0.4700 hc         1 UNL       0.045700
     30 H1           1.6000    -0.2690    -1.7950 hc         1 UNL       0.058700
     31 H2           1.8990    -0.1550     1.2400 hc         1 UNL       0.047700
     32 H3          -2.3630     0.0780     0.6130 hc         1 UNL       0.047700
     33 H4          -0.4250     1.2100     1.4470 hc         1 UNL       0.040700
     34 H5          -0.5280     2.6510     0.4500 hc         1 UNL       0.040700
     35 H6          -0.9660    -2.5610    -1.1710 hc         1 UNL       0.041700
     36 H7          -0.6830    -1.4360    -2.5060 hc         1 UNL       0.041700
     37 H8           1.6130     2.3160    -0.5220 hc         1 UNL       0.041700
     38 H9           1.7410     2.2470     1.2230 hc         1 UNL       0.041700
     39 H10         -2.8510    -0.7210    -2.2700 hc         1 UNL       0.042200
     40 H11         -3.0670    -1.6370    -0.7740 hc         1 UNL       0.042200
     41 H12          1.7000    -2.6180    -1.5560 hc         1 UNL       0.049200
     42 H13          1.5280    -2.5710     0.1960 hc         1 UNL       0.049200
     43 H14         -3.2420     1.6890    -1.8380 hc         1 UNL       0.047700
     44 H15         -0.9660     2.4670    -2.0270 hc         1 UNL       0.035700
     45 H16          0.4900     1.5370    -2.2970 hc         1 UNL       0.035700
     46 H17         -1.0530     0.9080    -2.8410 hc         1 UNL       0.035700
     47 H18          3.8640     0.4920     2.2100 hc         1 UNL       0.044700
     48 H19          3.9980     2.0570     1.4240 hc         1 UNL       0.044700
     49 H20          3.9260    -3.0420    -0.6430 ha         1 UNL       0.119000
     50 H21          3.7250     2.3310    -1.0020 hc         1 UNL       0.037367
     51 H22          5.0530     1.2660    -1.4060 hc         1 UNL       0.037367
     52 H23          3.4620     0.9560    -2.0850 hc         1 UNL       0.037367
     53 H24          6.0210    -2.2030    -0.1540 hc         1 UNL       0.051200
     54 H25          6.1960    -0.6680    -0.9540 hc         1 UNL       0.051200
     55 H26          6.2530     1.5270     0.6140 hc         1 UNL       0.055200
     56 H27          6.1570     1.2760     2.3370 hc         1 UNL       0.055200
     57 H28         -4.9530     0.0820    -1.1510 hc         1 UNL       0.040200
     58 H29         -5.4280     1.7330    -0.8380 hc         1 UNL       0.040200
     59 H30          5.9120    -1.1520     2.0610 h1         1 UNL       0.035700
     60 H31         -2.7630     2.4790     1.0860 hc         1 UNL       0.034367
     61 H32         -2.2460     3.3120    -0.4110 hc         1 UNL       0.034367
     62 H33         -3.9130     3.3340     0.0620 hc         1 UNL       0.034367
     63 H34         -4.8520     1.4450     1.6060 hc         1 UNL       0.048700
     64 H35         -4.4010    -0.2160     1.3030 hc         1 UNL       0.048700
     65 H36          7.9480    -1.5050     1.0830 ho         1 UNL       0.398000
     66 H37         -7.1320     1.0050     1.4660 ha         1 UNL       0.121000
     67 H38         -9.0100    -0.3100     1.5730 hc         1 UNL       0.039867
     68 H39         -9.0160    -1.5770     0.3400 hc         1 UNL       0.039867
     69 H40         -8.6560    -1.9790     2.0330 hc         1 UNL       0.039867
     70 H41         -6.7670    -2.6540    -0.3830 hc         1 UNL       0.039867
     71 H42         -5.2610    -2.0930     0.3420 hc         1 UNL       0.039867
     72 H43         -6.3910    -3.0430     1.3090 hc         1 UNL       0.039867
@<TRIPOS>BOND
     1     1    22 1   
     2     1    65 1   
     3     2     3 1   
     4     2     6 1   
     5     2     7 1   
     6     2    14 1   
     7     3     4 1   
     8     3     9 1   
     9     3    29 1   
    10     4     5 1   
    11     4    12 1   
    12     4    30 1   
    13     5     8 1   
    14     5    10 1   
    15     5    31 1   
    16     6    11 1   
    17     6    13 1   
    18     6    32 1   
    19     7    10 1   
    20     7    33 1   
    21     7    34 1   
    22     8    15 1   
    23     8    16 1   
    24     8    18 1   
    25     9    11 1   
    26     9    35 1   
    27     9    36 1   
    28    10    37 1   
    29    10    38 1   
    30    11    39 1   
    31    11    40 1   
    32    12    17 1   
    33    12    41 1   
    34    12    42 1   
    35    13    21 1   
    36    13    23 1   
    37    13    43 1   
    38    14    44 1   
    39    14    45 1   
    40    14    46 1   
    41    15    17 2   
    42    15    19 1   
    43    16    20 1   
    44    16    47 1   
    45    16    48 1   
    46    17    49 1   
    47    18    50 1   
    48    18    51 1   
    49    18    52 1   
    50    19    22 1   
    51    19    53 1   
    52    19    54 1   
    53    20    22 1   
    54    20    55 1   
    55    20    56 1   
    56    21    24 1   
    57    21    57 1   
    58    21    58 1   
    59    22    59 1   
    60    23    60 1   
    61    23    61 1   
    62    23    62 1   
    63    24    25 1   
    64    24    63 1   
    65    24    64 1   
    66    25    26 2   
    67    25    66 1   
    68    26    27 1   
    69    26    28 1   
    70    27    67 1   
    71    27    68 1   
    72    27    69 1   
    73    28    70 1   
    74    28    71 1   
    75    28    72 1   
@<TRIPOS>SUBSTRUCTURE
     1 UNL         1 TEMP              0 ****  ****    0 ROOT
