@<TRIPOS>MOLECULE
18950
   24    24     1     0     0
SMALL
bcc


@<TRIPOS>ATOM
      1 O           -0.6720     1.1270     0.0820 os         1 UNL      -0.454600
      2 O1          -0.5980    -2.5240    -0.3180 oh         1 UNL      -0.585800
      3 O2           2.1890    -1.8650     0.0630 oh         1 UNL      -0.577800
      4 O3           1.8600     0.6420     1.2420 oh         1 UNL      -0.571800
      5 O4           0.9540     2.7790    -0.2880 oh         1 UNL      -0.567800
      6 O5          -3.3710     0.6630     0.0690 oh         1 UNL      -0.593800
      7 C           -0.1410    -1.2570     0.1490 c6         1 UNL       0.065100
      8 C1           1.2280    -0.9540    -0.4630 c6         1 UNL       0.082100
      9 C2          -1.1580    -0.1780    -0.2480 c6         1 UNL       0.076100
     10 C3           1.6510     0.4850    -0.1650 c6         1 UNL       0.093100
     11 C4           0.5450     1.4490    -0.5950 c6         1 UNL       0.303900
     12 C5          -2.4890    -0.3680     0.4720 c3         1 UNL       0.139400
     13 H           -0.0540    -1.3300     1.2400 h1         1 UNL       0.098700
     14 H1           1.2000    -1.1110    -1.5480 h1         1 UNL       0.042700
     15 H2          -1.3530    -0.2050    -1.3290 h1         1 UNL       0.054700
     16 H3           2.6040     0.7230    -0.6480 h1         1 UNL       0.108700
     17 H4           0.3770     1.4030    -1.6760 h2         1 UNL       0.084700
     18 H5          -2.3690    -0.2990     1.5590 h1         1 UNL       0.063200
     19 H6          -2.9470    -1.3310     0.2290 h1         1 UNL       0.063200
     20 H7          -0.6810    -2.4750    -1.2850 ho         1 UNL       0.406000
     21 H8           1.8730    -2.7640    -0.1290 ho         1 UNL       0.419000
     22 H9           0.9950     0.6180     1.6850 ho         1 UNL       0.407000
     23 H10          1.4610     2.7560     0.5410 ho         1 UNL       0.429000
     24 H11         -2.9530     1.5120     0.2900 ho         1 UNL       0.416000
@<TRIPOS>BOND
     1     1     9 1   
     2     1    11 1   
     3     2     7 1   
     4     2    20 1   
     5     3     8 1   
     6     3    21 1   
     7     4    10 1   
     8     4    22 1   
     9     5    11 1   
    10     5    23 1   
    11     6    12 1   
    12     6    24 1   
    13     7     8 1   
    14     7     9 1   
    15     7    13 1   
    16     8    10 1   
    17     8    14 1   
    18     9    12 1   
    19     9    15 1   
    20    10    11 1   
    21    10    16 1   
    22    11    17 1   
    23    12    18 1   
    24    12    19 1   
@<TRIPOS>SUBSTRUCTURE
     1 UNL         1 TEMP              0 ****  ****    0 ROOT
