@<TRIPOS>MOLECULE
2337
   23    23     1     0     0
SMALL
bcc


@<TRIPOS>ATOM
      1 O           -2.1130    -0.3570     0.0010 os         1 UNL      -0.445900
      2 O1          -1.7060     1.9090     0.0000 o          1 UNL      -0.557000
      3 N            4.1630    -0.7320    -0.0010 nv         1 UNL      -0.836200
      4 C            0.1080     0.3620     0.0010 ca         1 UNL      -0.189600
      5 C1           1.0960     1.3470    -0.0000 ca         1 UNL      -0.027500
      6 C2           0.4670    -0.9860     0.0010 ca         1 UNL      -0.027500
      7 C3           2.8020    -0.3650    -0.0000 ca         1 UNL       0.191600
      8 C4           2.4430     0.9830    -0.0010 ca         1 UNL      -0.221000
      9 C5           1.8140    -1.3490     0.0010 ca         1 UNL      -0.221000
     10 C6          -1.2960     0.7410     0.0010 c          1 UNL       0.654700
     11 C7          -3.5240    -0.1130    -0.0010 c3         1 UNL       0.140400
     12 C8          -4.2530    -1.4400    -0.0010 c3         1 UNL      -0.100100
     13 H            0.8380     2.4020    -0.0010 ha         1 UNL       0.154000
     14 H1          -0.2680    -1.7870     0.0020 ha         1 UNL       0.154000
     15 H2           3.2030     1.7600    -0.0020 ha         1 UNL       0.137500
     16 H3           2.0810    -2.4030     0.0010 ha         1 UNL       0.137500
     17 H4          -3.7950     0.4600     0.8930 h1         1 UNL       0.051200
     18 H5          -3.7930     0.4590    -0.8950 h1         1 UNL       0.051200
     19 H6          -5.3370    -1.2900    -0.0020 hc         1 UNL       0.046367
     20 H7          -3.9770    -2.0310    -0.8800 hc         1 UNL       0.046367
     21 H8          -3.9780    -2.0300     0.8790 hc         1 UNL       0.046367
     22 H9           4.4240    -1.7090     0.0000 hn         1 UNL       0.405800
     23 H10          4.8800    -0.0180    -0.0010 hn         1 UNL       0.405800
@<TRIPOS>BOND
     1     1    10 1   
     2     1    11 1   
     3     2    10 2   
     4     3     7 1   
     5     3    22 1   
     6     3    23 1   
     7     4     5 ar  
     8     4     6 ar  
     9     4    10 1   
    10     5     8 ar  
    11     5    13 1   
    12     6     9 ar  
    13     6    14 1   
    14     7     8 ar  
    15     7     9 ar  
    16     8    15 1   
    17     9    16 1   
    18    11    12 1   
    19    11    17 1   
    20    11    18 1   
    21    12    19 1   
    22    12    20 1   
    23    12    21 1   
@<TRIPOS>SUBSTRUCTURE
     1 UNL         1 TEMP              0 ****  ****    0 ROOT
