@<TRIPOS>MOLECULE
2337
 23 23 0 0 0
SMALL
GASTEIGER

@<TRIPOS>ATOM
      1 O          -2.1131   -0.3568    0.0005 O.3     1  UNL1       -0.4614
      2 O          -1.7062    1.9089    0.0000 O.2     1  UNL1       -0.2450
      3 N           4.1634   -0.7318   -0.0010 N.pl3   1  UNL1       -0.3580
      4 C           0.1082    0.3619    0.0009 C.ar    1  UNL1        0.0591
      5 C           1.0960    1.3466   -0.0001 C.ar    1  UNL1       -0.0460
      6 C           0.4669   -0.9861    0.0012 C.ar    1  UNL1       -0.0460
      7 C           2.8017   -0.3646   -0.0004 C.ar    1  UNL1        0.0246
      8 C           2.4427    0.9834   -0.0008 C.ar    1  UNL1       -0.0403
      9 C           1.8137   -1.3494    0.0006 C.ar    1  UNL1       -0.0403
     10 C          -1.2959    0.7406    0.0008 C.2     1  UNL1        0.3392
     11 C          -3.5238   -0.1131   -0.0009 C.3     1  UNL1        0.0900
     12 C          -4.2535   -1.4395   -0.0009 C.3     1  UNL1       -0.0306
     13 H           0.8381    2.4025   -0.0005 H       1  UNL1        0.0626
     14 H          -0.2676   -1.7866    0.0019 H       1  UNL1        0.0626
     15 H           3.2033    1.7599   -0.0016 H       1  UNL1        0.0636
     16 H           2.0812   -2.4031    0.0009 H       1  UNL1        0.0636
     17 H          -3.7946    0.4601    0.8926 H       1  UNL1        0.0695
     18 H          -3.7929    0.4592   -0.8954 H       1  UNL1        0.0695
     19 H          -5.3367   -1.2901   -0.0020 H       1  UNL1        0.0262
     20 H          -3.9769   -2.0312   -0.8798 H       1  UNL1        0.0262
     21 H          -3.9785   -2.0303    0.8790 H       1  UNL1        0.0262
     22 H           4.4242   -1.7089    0.0001 H       1  UNL1        0.1423
     23 H           4.8800   -0.0182   -0.0009 H       1  UNL1        0.1423
@<TRIPOS>BOND
     1     1    10    1
     2     1    11    1
     3     2    10    2
     4     3     7    1
     5     3    22    1
     6     3    23    1
     7     4     5   ar
     8     4     6   ar
     9     4    10    1
    10     5     8   ar
    11     5    13    1
    12     6     9   ar
    13     6    14    1
    14     7     8   ar
    15     7     9   ar
    16     8    15    1
    17     9    16    1
    18    11    12    1
    19    11    17    1
    20    11    18    1
    21    12    19    1
    22    12    20    1
    23    12    21    1
