@<TRIPOS>MOLECULE
750
   10     9     1     0     0
SMALL
bcc


@<TRIPOS>ATOM
      1 O           -1.6490     0.6570    -0.0100 oh         1 GLY      -0.604100
      2 OXT         -0.4840    -1.2930    -0.0010 o          1 GLY      -0.559000
      3 N            1.9010    -0.0810    -0.0090 n8         1 GLY      -0.895800
      4 CA           0.7340     0.7870     0.0080 c3         1 GLY       0.118800
      5 C           -0.5020    -0.0690     0.0120 c          1 GLY       0.583100
      6 HA1          0.7330     1.4210    -0.8820 h1         1 GLY       0.090700
      7 HA2          0.7460     1.4090     0.9070 h1         1 GLY       0.090700
      8 H1           1.8740    -0.6840    -0.8300 hn         1 GLY       0.364800
      9 H2           1.8890    -0.6970     0.8030 hn         1 GLY       0.364800
     10 H           -2.4450     0.0840    -0.0260 ho         1 GLY       0.445000
@<TRIPOS>BOND
     1     1     5 1   
     2     1    10 1   
     3     2     5 2   
     4     3     4 1   
     5     3     8 1   
     6     3     9 1   
     7     4     5 1   
     8     4     6 1   
     9     4     7 1   
@<TRIPOS>SUBSTRUCTURE
     1 GLY         1 TEMP              0 ****  ****    0 ROOT
