@<TRIPOS>MOLECULE
6288
   17    16     1     0     0
SMALL
bcc


@<TRIPOS>ATOM
      1 OG1         -1.7110    -1.1850     0.3580 oh         1 THR      -0.598800
      2 O            0.9760    -1.6810     0.1310 oh         1 THR      -0.609100
      3 OXT          2.0210     0.1500    -0.7010 o          1 THR      -0.550000
      4 N            0.4050     1.8670     0.5740 n8         1 THR      -0.890800
      5 CB          -1.3540     0.1880     0.2040 c3         1 THR       0.155100
      6 CA           0.0660     0.4490     0.7290 c3         1 THR       0.097500
      7 CG2         -1.5260     0.5510    -1.2650 c3         1 THR      -0.105100
      8 C            1.1220    -0.3400    -0.0300 c          1 THR       0.594100
      9 HA           0.1450     0.1700     1.7860 h1         1 THR       0.087700
     10 HB          -2.0740     0.7710     0.7920 h1         1 THR       0.056700
     11 HG21        -1.3270     1.6100    -1.4580 hc         1 THR       0.054367
     12 HG22        -2.5520     0.3380    -1.5860 hc         1 THR       0.054367
     13 HG23        -0.8760    -0.0530    -1.9080 hc         1 THR       0.054367
     14 H1           1.3080     2.0510     1.0120 hn         1 THR       0.368800
     15 H2          -0.2750     2.4360     1.0780 hn         1 THR       0.368800
     16 HG1         -1.6070    -1.4090     1.2980 ho         1 THR       0.414000
     17 H            1.6640    -2.1840    -0.3540 ho         1 THR       0.449000
@<TRIPOS>BOND
     1     1     5 1   
     2     1    16 1   
     3     2     8 1   
     4     2    17 1   
     5     3     8 2   
     6     4     6 1   
     7     4    14 1   
     8     4    15 1   
     9     5     6 1   
    10     5     7 1   
    11     5    10 1   
    12     6     8 1   
    13     6     9 1   
    14     7    11 1   
    15     7    12 1   
    16     7    13 1   
@<TRIPOS>SUBSTRUCTURE
     1 THR         1 TEMP              0 ****  ****    0 ROOT
