@<TRIPOS>MOLECULE
2764
   42    45     1     0     0
SMALL
bcc


@<TRIPOS>ATOM
      1 F           -2.2160     2.7830     0.3610 f          1 UNL      -0.132900
      2 O            2.8090     2.5240     0.2330 o          1 UNL      -0.529100
      3 O1           5.1620     1.4600     0.6810 oh         1 UNL      -0.560100
      4 O2           5.5980    -0.2900    -0.7260 o          1 UNL      -0.598000
      5 N            1.5280    -1.3110    -0.2910 na         1 UNL      -0.483800
      6 N1          -3.1270     0.1880     0.0110 nh         1 UNL      -0.638000
      7 N2          -5.8810    -0.5180    -0.2460 n7         1 UNL      -0.821200
      8 C            1.1460    -2.7270    -0.4860 cx         1 UNL       0.132500
      9 C1           1.6920    -3.7950     0.4010 cx         1 UNL      -0.124900
     10 C2           0.2420    -3.4160     0.4810 cx         1 UNL      -0.124900
     11 C3           0.5510    -0.2890    -0.1260 ca         1 UNL       0.184600
     12 C4           2.8700    -0.9820    -0.2690 cc         1 UNL       0.190000
     13 C5           0.9660     1.0480     0.0570 ca         1 UNL      -0.193600
     14 C6          -0.8290    -0.5520    -0.1380 ca         1 UNL      -0.218000
     15 C7          -1.7590     0.4790     0.0260 ca         1 UNL       0.162600
     16 C8          -3.9590     0.8290    -1.0160 c6         1 UNL       0.185800
     17 C9          -3.5990    -1.1170     0.4880 c6         1 UNL       0.185800
     18 C10          3.3690     0.2490    -0.1020 cd         1 UNL      -0.337400
     19 C11          2.4160     1.3740     0.0770 c          1 UNL       0.603900
     20 C12         -5.4280     0.8280    -0.5930 c6         1 UNL       0.159300
     21 C13         -5.0810    -1.0500     0.8560 c6         1 UNL       0.159300
     22 C14          0.0340     2.0800     0.2210 ca         1 UNL      -0.073000
     23 C15         -1.3290     1.7900     0.2050 ca         1 UNL       0.071900
     24 C16          4.8230     0.4150    -0.1050 c          1 UNL       0.670300
     25 H            1.0250    -2.9710    -1.5370 h1         1 UNL       0.100700
     26 H1           2.3240    -3.5200     1.2370 hc         1 UNL       0.087950
     27 H2           1.9400    -4.7490    -0.0490 hc         1 UNL       0.087950
     28 H3          -0.4830    -4.1160     0.0850 hc         1 UNL       0.087950
     29 H4          -0.0720    -2.9130     1.3880 hc         1 UNL       0.087950
     30 H5           3.5220    -1.8390    -0.4090 h4         1 UNL       0.184000
     31 H6          -1.1880    -1.5550    -0.3360 ha         1 UNL       0.148000
     32 H7          -3.8410     0.2840    -1.9620 h1         1 UNL       0.048450
     33 H8          -3.6590     1.8650    -1.2070 h1         1 UNL       0.048450
     34 H9          -3.0400    -1.4310     1.3780 h1         1 UNL       0.048450
     35 H10         -3.4510    -1.8750    -0.2920 h1         1 UNL       0.048450
     36 H11         -5.5770     1.5040     0.2580 h1         1 UNL       0.040700
     37 H12         -6.0400     1.2090    -1.4170 h1         1 UNL       0.040700
     38 H13         -5.4360    -2.0560     1.1040 h1         1 UNL       0.040700
     39 H14         -5.2200    -0.4300     1.7510 h1         1 UNL       0.040700
     40 H15          0.3490     3.1100     0.3620 ha         1 UNL       0.181000
     41 H16         -6.8600    -0.4800     0.0380 hn         1 UNL       0.368800
     42 H17          6.1330     1.6030     0.7050 ho         1 UNL       0.439000
@<TRIPOS>BOND
     1     1    23 1   
     2     2    19 2   
     3     3    24 1   
     4     3    42 1   
     5     4    24 2   
     6     5     8 1   
     7     5    11 1   
     8     5    12 1   
     9     6    15 1   
    10     6    16 1   
    11     6    17 1   
    12     7    20 1   
    13     7    21 1   
    14     7    41 1   
    15     8     9 1   
    16     8    10 1   
    17     8    25 1   
    18     9    10 1   
    19     9    26 1   
    20     9    27 1   
    21    10    28 1   
    22    10    29 1   
    23    11    13 ar  
    24    11    14 ar  
    25    12    18 2   
    26    12    30 1   
    27    13    19 1   
    28    13    22 ar  
    29    14    15 ar  
    30    14    31 1   
    31    15    23 ar  
    32    16    20 1   
    33    16    32 1   
    34    16    33 1   
    35    17    21 1   
    36    17    34 1   
    37    17    35 1   
    38    18    19 1   
    39    18    24 1   
    40    20    36 1   
    41    20    37 1   
    42    21    38 1   
    43    21    39 1   
    44    22    23 ar  
    45    22    40 1   
@<TRIPOS>SUBSTRUCTURE
     1 UNL         1 TEMP              0 ****  ****    0 ROOT
