@<TRIPOS>MOLECULE
5754
   56    59     1     0     0
SMALL
bcc


@<TRIPOS>ATOM
      1 O            3.1140    -0.2860    -1.9420 oh         1 UNL      -0.572800
      2 O1          -0.2290     2.1440     1.2400 oh         1 UNL      -0.605800
      3 O2           4.3270     1.6730     0.0600 o          1 UNL      -0.508100
      4 O3           6.7990     0.5840    -0.4650 oh         1 UNL      -0.585800
      5 O4          -6.4230    -0.0340    -1.3440 o          1 UNL      -0.537100
      6 C            1.8920     0.1630     0.1440 c5         1 UNL      -0.017000
      7 C1           0.9980    -1.0770    -0.0740 c5         1 UNL      -0.068700
      8 C2          -0.4050    -0.9390     0.5380 c6         1 UNL      -0.046700
      9 C3          -1.1200     0.2890    -0.1140 c6         1 UNL      -0.040700
     10 C4           3.2010    -0.3460    -0.5210 c5         1 UNL       0.062800
     11 C5           1.2020     1.3570    -0.5470 c6         1 UNL      -0.102400
     12 C6          -2.6190     0.4570     0.3690 c6         1 UNL      -0.006800
     13 C7          -0.2480     1.5820    -0.0650 c6         1 UNL       0.150100
     14 C8           1.8850    -2.2360     0.3710 c5         1 UNL      -0.068400
     15 C9           3.3030    -1.8230    -0.0780 c5         1 UNL      -0.105400
     16 C10         -1.2200    -2.2200     0.3000 c6         1 UNL      -0.072400
     17 C11          2.1570     0.4720     1.6430 c3         1 UNL      -0.108100
     18 C12         -3.3460    -0.8880     0.2340 c2         1 UNL      -0.030400
     19 C13         -2.6440    -2.0890     0.8180 c6         1 UNL      -0.054200
     20 C14         -3.3000     1.5230    -0.5370 c6         1 UNL      -0.071400
     21 C15         -2.7470     0.8980     1.8450 c3         1 UNL      -0.079100
     22 C16          4.4120     0.4680    -0.1740 c          1 UNL       0.516100
     23 C17         -4.8190     1.5080    -0.4590 c6         1 UNL      -0.181400
     24 C18         -4.5570    -1.0370    -0.3280 ce         1 UNL      -0.266200
     25 C19         -5.3420     0.1330    -0.7840 c          1 UNL       0.570300
     26 C20          5.7300    -0.2760    -0.1310 c3         1 UNL       0.030400
     27 H            0.8470    -1.2120    -1.1580 hc         1 UNL       0.064700
     28 H1          -0.3280    -0.7920     1.6190 hc         1 UNL       0.067700
     29 H2          -1.1830     0.0410    -1.1880 hc         1 UNL       0.053700
     30 H3           1.1650     1.1930    -1.6310 hc         1 UNL       0.068200
     31 H4           1.7890     2.2690    -0.3870 hc         1 UNL       0.068200
     32 H5          -0.6970     2.3360    -0.7210 h1         1 UNL       0.034700
     33 H6           1.5870    -3.1830    -0.0890 hc         1 UNL       0.049700
     34 H7           1.8510    -2.3710     1.4580 hc         1 UNL       0.049700
     35 H8           3.9800    -1.9800     0.7680 hc         1 UNL       0.050700
     36 H9           3.6330    -2.4730    -0.8970 hc         1 UNL       0.050700
     37 H10         -0.7410    -3.0680     0.8030 hc         1 UNL       0.046200
     38 H11         -1.2410    -2.4590    -0.7720 hc         1 UNL       0.046200
     39 H12          2.5930     1.4670     1.7780 hc         1 UNL       0.049367
     40 H13          1.2470     0.4540     2.2480 hc         1 UNL       0.049367
     41 H14          2.8420    -0.2460     2.1070 hc         1 UNL       0.049367
     42 H15         -2.6310    -2.0000     1.9110 hc         1 UNL       0.056700
     43 H16         -3.1860    -3.0160     0.5930 hc         1 UNL       0.056700
     44 H17         -3.0150     1.3500    -1.5850 hc         1 UNL       0.051200
     45 H18         -2.9470     2.5300    -0.2830 hc         1 UNL       0.051200
     46 H19         -2.0850     0.3300     2.5060 hc         1 UNL       0.044700
     47 H20         -2.5200     1.9600     1.9760 hc         1 UNL       0.044700
     48 H21         -3.7680     0.7560     2.2200 hc         1 UNL       0.044700
     49 H22          3.8730    -0.7650    -2.3170 ho         1 UNL       0.404000
     50 H23         -5.2240     2.2160    -1.1900 hc         1 UNL       0.071700
     51 H24         -5.1790     1.7970     0.5330 hc         1 UNL       0.071700
     52 H25          0.2820     2.9700     1.2000 ho         1 UNL       0.404000
     53 H26         -5.0340    -2.0070    -0.4140 ha         1 UNL       0.147000
     54 H27          5.7360    -1.0840    -0.8660 h1         1 UNL       0.067200
     55 H28          5.8940    -0.6860     0.8700 h1         1 UNL       0.067200
     56 H29          6.8620     1.2580     0.2340 ho         1 UNL       0.422000
@<TRIPOS>BOND
     1     1    10 1   
     2     1    49 1   
     3     2    13 1   
     4     2    52 1   
     5     3    22 2   
     6     4    26 1   
     7     4    56 1   
     8     5    25 2   
     9     6     7 1   
    10     6    10 1   
    11     6    11 1   
    12     6    17 1   
    13     7     8 1   
    14     7    14 1   
    15     7    27 1   
    16     8     9 1   
    17     8    16 1   
    18     8    28 1   
    19     9    12 1   
    20     9    13 1   
    21     9    29 1   
    22    10    15 1   
    23    10    22 1   
    24    11    13 1   
    25    11    30 1   
    26    11    31 1   
    27    12    18 1   
    28    12    20 1   
    29    12    21 1   
    30    13    32 1   
    31    14    15 1   
    32    14    33 1   
    33    14    34 1   
    34    15    35 1   
    35    15    36 1   
    36    16    19 1   
    37    16    37 1   
    38    16    38 1   
    39    17    39 1   
    40    17    40 1   
    41    17    41 1   
    42    18    19 1   
    43    18    24 2   
    44    19    42 1   
    45    19    43 1   
    46    20    23 1   
    47    20    44 1   
    48    20    45 1   
    49    21    46 1   
    50    21    47 1   
    51    21    48 1   
    52    22    26 1   
    53    23    25 1   
    54    23    50 1   
    55    23    51 1   
    56    24    25 1   
    57    24    53 1   
    58    26    54 1   
    59    26    55 1   
@<TRIPOS>SUBSTRUCTURE
     1 UNL         1 TEMP              0 ****  ****    0 ROOT
