@<TRIPOS>MOLECULE
6175
   30    31     1     0     0
SMALL
bcc


@<TRIPOS>ATOM
      1 O4*         -1.3680    -0.5370     1.0210 os         1 C1       -0.394600
      2 O2*         -1.2310     2.3580    -1.0900 oh         1 C1       -0.597800
      3 O3*         -3.4010     1.5650     0.3590 oh         1 C1       -0.575800
      4 O5*         -2.3410    -3.0610     0.2770 oh         1 C1       -0.592800
      5 O2           1.5750     2.2990     0.7020 o          1 C1       -0.659500
      6 N1           0.7130     0.2040     0.2590 n          1 C1       -0.405000
      7 N3           3.0760     0.6860     0.1550 nc         1 C1       -0.726100
      8 N4           4.6080    -0.9700    -0.4070 nv         1 C1       -0.917800
      9 C2*         -1.3630     0.9820    -0.7970 c5         1 C1        0.093100
     10 C3*         -2.7950     0.5940    -0.4940 c5         1 C1        0.128100
     11 C1*         -0.6510     0.5870     0.4850 c5         1 C1        0.257500
     12 C4*         -2.6150    -0.6880     0.3080 c5         1 C1        0.092100
     13 C5*         -2.5160    -1.9330    -0.5630 c3         1 C1        0.106400
     14 C6           0.9870    -1.1070    -0.0970 cc         1 C1        0.076600
     15 C2           1.7840     1.1260     0.3880 c          1 C1        0.840900
     16 C5           2.2220    -1.5490    -0.3270 cd         1 C1       -0.440600
     17 C4           3.3170    -0.5540    -0.1800 cd         1 C1        0.758500
     18 H2*         -0.9990     0.4080    -1.6580 h1         1 C1        0.077700
     19 H3*         -3.4240     0.4930    -1.3820 h1         1 C1        0.088700
     20 H1*         -0.6780     1.3950     1.2250 h2         1 C1        0.106700
     21 H4*         -3.3970    -0.8210     1.0640 h1         1 C1        0.106700
     22 H5*1        -1.6850    -1.8920    -1.2710 h1         1 C1        0.034700
     23 H5*2        -3.4420    -2.0710    -1.1300 h1         1 C1        0.034700
     24 H7          -0.2820     2.5460    -1.1850 ho         1 C1        0.449000
     25 H8          -2.9170     1.5930     1.2010 ho         1 C1        0.427000
     26 H6           0.1690    -1.8040    -0.1910 h4         1 C1        0.195000
     27 H5*         -2.2930    -3.8430    -0.2990 ho         1 C1        0.404000
     28 H5           2.4440    -2.5710    -0.6040 ha         1 C1        0.155000
     29 H41          4.8270    -1.9260    -0.6690 hn         1 C1        0.438300
     30 H42          5.3860    -0.3250    -0.3190 hn         1 C1        0.438300
@<TRIPOS>BOND
     1     1    11 1   
     2     1    12 1   
     3     2     9 1   
     4     2    24 1   
     5     3    10 1   
     6     3    25 1   
     7     4    13 1   
     8     4    27 1   
     9     5    15 2   
    10     6    11 1   
    11     6    14 1   
    12     6    15 1   
    13     7    15 1   
    14     7    17 2   
    15     8    17 1   
    16     8    29 1   
    17     8    30 1   
    18     9    10 1   
    19     9    11 1   
    20     9    18 1   
    21    10    12 1   
    22    10    19 1   
    23    11    20 1   
    24    12    13 1   
    25    12    21 1   
    26    13    22 1   
    27    13    23 1   
    28    14    16 2   
    29    14    26 1   
    30    16    17 1   
    31    16    28 1   
@<TRIPOS>SUBSTRUCTURE
     1 C1          1 TEMP              0 ****  ****    0 ROOT
