@<TRIPOS>MOLECULE
5564
   24    25     1     0     0
SMALL
bcc


@<TRIPOS>ATOM
      1 Cl          -1.9930     2.6480     1.0550 cl         1 UNL      -0.069400
      2 Cl1          4.9960    -1.2990     1.2090 cl         1 UNL      -0.082400
      3 Cl2         -4.9750    -1.7900     0.3950 cl         1 UNL      -0.083400
      4 O           -0.0040     1.1640    -0.6410 os         1 UNL      -0.235200
      5 O1           1.9870     0.5100    -2.4670 oh         1 UNL      -0.485100
      6 C            1.1580     0.5910    -0.2220 ca         1 UNL       0.059100
      7 C1          -1.1830     0.4850    -0.3840 ca         1 UNL       0.097100
      8 C2           2.1580     0.2640    -1.1380 ca         1 UNL       0.130100
      9 C3           1.3450     0.3340     1.1360 ca         1 UNL      -0.090000
     10 C4          -2.1750     1.0680     0.3860 ca         1 UNL       0.016400
     11 C5          -1.3350    -0.7820    -0.9200 ca         1 UNL      -0.121000
     12 C6           3.3450    -0.3210    -0.6960 ca         1 UNL      -0.206000
     13 C7           2.5320    -0.2500     1.5780 ca         1 UNL      -0.150000
     14 C8          -3.3540     0.3620     0.6280 ca         1 UNL      -0.117000
     15 C9          -2.5130    -1.4880    -0.6780 ca         1 UNL      -0.116000
     16 C10          3.5320    -0.5780     0.6620 ca         1 UNL       0.054400
     17 C11         -3.5220    -0.9170     0.0960 ca         1 UNL       0.018400
     18 H            0.5830     0.5920     1.8670 ha         1 UNL       0.161000
     19 H1          -0.5640    -1.2370    -1.5350 ha         1 UNL       0.170000
     20 H2           4.1240    -0.5760    -1.4100 ha         1 UNL       0.152000
     21 H3           2.6650    -0.4430     2.6400 ha         1 UNL       0.155000
     22 H4          -4.1420     0.8070     1.2320 ha         1 UNL       0.163000
     23 H5          -2.6310    -2.4830    -1.1010 ha         1 UNL       0.154000
     24 H6           2.7800     0.2170    -2.9480 ho         1 UNL       0.425000
@<TRIPOS>BOND
     1     1    10 1   
     2     2    16 1   
     3     3    17 1   
     4     4     6 1   
     5     4     7 1   
     6     5     8 1   
     7     5    24 1   
     8     6     8 ar  
     9     6     9 ar  
    10     7    10 ar  
    11     7    11 ar  
    12     8    12 ar  
    13     9    13 ar  
    14     9    18 1   
    15    10    14 ar  
    16    11    15 ar  
    17    11    19 1   
    18    12    16 ar  
    19    12    20 1   
    20    13    16 ar  
    21    13    21 1   
    22    14    17 ar  
    23    14    22 1   
    24    15    17 ar  
    25    15    23 1   
@<TRIPOS>SUBSTRUCTURE
     1 UNL         1 TEMP              0 ****  ****    0 ROOT
