@<TRIPOS>MOLECULE
5994
   53    56     1     0     0
SMALL
bcc


@<TRIPOS>ATOM
      1 O            5.5190    -0.1940    -0.6740 o          1 UNL      -0.533100
      2 O1          -6.0870    -0.2510     1.0000 o          1 UNL      -0.535100
      3 C            1.4340     0.9510     0.3840 c5         1 UNL      -0.061700
      4 C1           2.3080    -0.2440    -0.0540 c5         1 UNL      -0.038000
      5 C2           0.0470     0.9460    -0.2670 c6         1 UNL      -0.050700
      6 C3          -0.6910    -0.3710     0.1300 c6         1 UNL      -0.047700
      7 C4          -2.1520    -0.4560    -0.4580 c6         1 UNL      -0.015800
      8 C5           3.6030     0.0990     0.7150 c5         1 UNL      -0.164700
      9 C6           1.6070    -1.5290     0.4070 c6         1 UNL      -0.067400
     10 C7           0.1770    -1.6280    -0.1540 c6         1 UNL      -0.074400
     11 C8           2.3480     2.1530     0.1720 c5         1 UNL      -0.072400
     12 C9          -0.7800     2.1630     0.1670 c6         1 UNL      -0.072400
     13 C10          3.7410     1.6280     0.5650 c5         1 UNL      -0.075400
     14 C11         -2.9010     0.8490    -0.1580 c2         1 UNL      -0.028400
     15 C12          2.5670    -0.3070    -1.5820 c3         1 UNL      -0.091100
     16 C13         -2.1690     2.1360    -0.4570 c6         1 UNL      -0.054200
     17 C14         -2.8810    -1.6550     0.2150 c6         1 UNL      -0.069400
     18 C15         -2.1470    -0.6680    -1.9890 c3         1 UNL      -0.086100
     19 C16          4.8190    -0.6330     0.2370 c          1 UNL       0.576100
     20 C17         -4.3900    -1.6330     0.0300 c6         1 UNL      -0.182400
     21 C18         -4.1550     0.9010     0.3240 ce         1 UNL      -0.265200
     22 C19         -4.9590    -0.3270     0.5180 c          1 UNL       0.569300
     23 C20          5.1420    -1.9300     0.9270 c3         1 UNL      -0.204100
     24 H            1.2710     0.8820     1.4730 hc         1 UNL       0.047700
     25 H1           0.1590     0.9950    -1.3550 hc         1 UNL       0.059700
     26 H2          -0.8000    -0.3330     1.2260 hc         1 UNL       0.051700
     27 H3           3.4790    -0.1160     1.7850 hc         1 UNL       0.061700
     28 H4           1.5560    -1.5600     1.5030 hc         1 UNL       0.041700
     29 H5           2.1720    -2.4140     0.0960 hc         1 UNL       0.041700
     30 H6           0.2300    -1.8170    -1.2310 hc         1 UNL       0.044200
     31 H7          -0.2910    -2.5130     0.2900 hc         1 UNL       0.044200
     32 H8           2.0570     3.0080     0.7920 hc         1 UNL       0.046200
     33 H9           2.3420     2.4840    -0.8730 hc         1 UNL       0.046200
     34 H10         -0.2780     3.0890    -0.1360 hc         1 UNL       0.048200
     35 H11         -0.8660     2.1910     1.2610 hc         1 UNL       0.048200
     36 H12          4.4790     1.9410    -0.1800 hc         1 UNL       0.056700
     37 H13          4.0550     2.0660     1.5210 hc         1 UNL       0.056700
     38 H14          3.1200     0.5630    -1.9490 hc         1 UNL       0.043367
     39 H15          3.1510    -1.1980    -1.8390 hc         1 UNL       0.043367
     40 H16          1.6450    -0.3620    -2.1650 hc         1 UNL       0.043367
     41 H17         -2.0850     2.2530    -1.5440 hc         1 UNL       0.056200
     42 H18         -2.7320     3.0060    -0.0970 hc         1 UNL       0.056200
     43 H19         -2.6720    -1.6510     1.2940 hc         1 UNL       0.050200
     44 H20         -2.4990    -2.6080    -0.1710 hc         1 UNL       0.050200
     45 H21         -1.5300     0.0710    -2.5090 hc         1 UNL       0.041033
     46 H22         -1.7680    -1.6600    -2.2580 hc         1 UNL       0.041033
     47 H23         -3.1570    -0.5890    -2.4090 hc         1 UNL       0.041033
     48 H24         -4.8350    -2.4460     0.6150 hc         1 UNL       0.071700
     49 H25         -4.6750    -1.7720    -1.0170 hc         1 UNL       0.071700
     50 H26         -4.6480     1.8440     0.5360 ha         1 UNL       0.148000
     51 H27          5.2320    -1.7650     2.0040 hc         1 UNL       0.063700
     52 H28          4.3690    -2.6710     0.7220 hc         1 UNL       0.063700
     53 H29          6.0980    -2.3110     0.5560 hc         1 UNL       0.063700
@<TRIPOS>BOND
     1     1    19 2   
     2     2    22 2   
     3     3     4 1   
     4     3     5 1   
     5     3    11 1   
     6     3    24 1   
     7     4     8 1   
     8     4     9 1   
     9     4    15 1   
    10     5     6 1   
    11     5    12 1   
    12     5    25 1   
    13     6     7 1   
    14     6    10 1   
    15     6    26 1   
    16     7    14 1   
    17     7    17 1   
    18     7    18 1   
    19     8    13 1   
    20     8    19 1   
    21     8    27 1   
    22     9    10 1   
    23     9    28 1   
    24     9    29 1   
    25    10    30 1   
    26    10    31 1   
    27    11    13 1   
    28    11    32 1   
    29    11    33 1   
    30    12    16 1   
    31    12    34 1   
    32    12    35 1   
    33    13    36 1   
    34    13    37 1   
    35    14    16 1   
    36    14    21 2   
    37    15    38 1   
    38    15    39 1   
    39    15    40 1   
    40    16    41 1   
    41    16    42 1   
    42    17    20 1   
    43    17    43 1   
    44    17    44 1   
    45    18    45 1   
    46    18    46 1   
    47    18    47 1   
    48    19    23 1   
    49    20    22 1   
    50    20    48 1   
    51    20    49 1   
    52    21    22 1   
    53    21    50 1   
    54    23    51 1   
    55    23    52 1   
    56    23    53 1   
@<TRIPOS>SUBSTRUCTURE
     1 UNL         1 TEMP              0 ****  ****    0 ROOT
