@<TRIPOS>MOLECULE
135398635
   33    35     1     0     0
SMALL
bcc


@<TRIPOS>ATOM
      1 O4*          2.2520     0.3950     1.0060 os         1 G1       -0.414600
      2 O2*          1.2060    -2.1540    -1.3160 oh         1 G1       -0.560800
      3 O3*          3.4190    -2.3130     0.3110 oh         1 G1       -0.587800
      4 O5*          4.1920     2.3590     0.5280 oh         1 G1       -0.587800
      5 O6          -4.2510     1.9350    -0.4360 o          1 G1       -0.595500
      6 N9          -0.0310     0.4280     0.1410 na         1 G1       -0.230900
      7 N7          -1.2970     2.2150    -0.3150 nc         1 G1       -0.582000
      8 N3          -1.7360    -1.2700     0.3970 nd         1 G1       -0.672100
      9 N1          -3.9100    -0.3210     0.0640 ns         1 G1       -0.509400
     10 N2          -3.6600    -2.6080     0.5640 nv         1 G1       -0.893800
     11 C2*          1.8210    -0.9550    -0.8900 c5         1 G1        0.132100
     12 C1*          1.2120    -0.3930     0.3900 c5         1 G1        0.219800
     13 C3*          3.2720    -1.1430    -0.4920 c5         1 G1        0.082100
     14 C4*          3.5210     0.0710     0.3950 c5         1 G1        0.049100
     15 C5*          4.0020     1.2890    -0.3810 c3         1 G1        0.111400
     16 C4          -1.3230    -0.0070     0.1540 cd         1 G1        0.112800
     17 C8          -0.0660     1.7710    -0.1460 cd         1 G1        0.402400
     18 C5          -2.0730     1.1090    -0.1280 cc         1 G1        0.176800
     19 C6          -3.5040     0.9960    -0.1910 c          1 G1        0.651000
     20 C2          -3.0440    -1.4030     0.3460 cc         1 G1        0.684800
     21 H2*          1.7460    -0.2230    -1.7040 h1         1 G1        0.114700
     22 H1*          0.9080    -1.1770     1.0950 h2         1 G1        0.114700
     23 H3*          3.9490    -1.2340    -1.3460 h1         1 G1        0.067700
     24 H4*          4.2160    -0.1450     1.2140 h1         1 G1        0.097700
     25 H5*1         3.2640     1.6110    -1.1220 h1         1 G1        0.057700
     26 H5*2         4.9510     1.0820    -0.8830 h1         1 G1        0.057700
     27 H6           1.7210    -2.4960    -2.0660 ho         1 G1        0.422000
     28 H7           4.3550    -2.3710     0.5700 ho         1 G1        0.418000
     29 H8           0.8300     2.3710    -0.2220 h5         1 G1        0.070100
     30 H5*          4.5010     3.1230     0.0110 ho         1 G1        0.412000
     31 H1          -4.9080    -0.5130     0.0440 hn         1 G1        0.335500
     32 H21         -3.1230    -3.4430     0.7730 hn         1 G1        0.423300
     33 H22         -4.6690    -2.7010     0.5220 hn         1 G1        0.423300
@<TRIPOS>BOND
     1     1    12 1   
     2     1    14 1   
     3     2    11 1   
     4     2    27 1   
     5     3    13 1   
     6     3    28 1   
     7     4    15 1   
     8     4    30 1   
     9     5    19 2   
    10     6    12 1   
    11     6    16 1   
    12     6    17 1   
    13     7    17 2   
    14     7    18 1   
    15     8    16 1   
    16     8    20 2   
    17     9    19 1   
    18     9    20 1   
    19     9    31 1   
    20    10    20 1   
    21    10    32 1   
    22    10    33 1   
    23    11    12 1   
    24    11    13 1   
    25    11    21 1   
    26    12    22 1   
    27    13    14 1   
    28    13    23 1   
    29    14    15 1   
    30    14    24 1   
    31    15    25 1   
    32    15    26 1   
    33    16    18 2   
    34    17    29 1   
    35    18    19 1   
@<TRIPOS>SUBSTRUCTURE
     1 G1          1 TEMP              0 ****  ****    0 ROOT
