@<TRIPOS>MOLECULE
3672
   33    33     1     0     0
SMALL
bcc


@<TRIPOS>ATOM
      1 O           -4.4460    -1.0030     0.4110 oh         1 UNL      -0.607100
      2 O1          -2.4010    -1.9110     0.0530 o          1 UNL      -0.553000
      3 C            3.9020    -0.4410     0.0360 c3         1 UNL      -0.059700
      4 C1           3.1490     0.8190    -0.4310 c3         1 UNL      -0.036100
      5 C2           1.6530     0.7390    -0.2470 ca         1 UNL      -0.063300
      6 C3          -1.0950     0.5940     0.0900 ca         1 UNL      -0.099300
      7 C4          -2.5730     0.5150     0.2720 c3         1 UNL      -0.055400
      8 C5           3.6080    -0.7760     1.5000 c3         1 UNL      -0.093100
      9 C6           3.5240    -1.6300    -0.8510 c3         1 UNL      -0.093100
     10 C7           0.8690     0.2280    -1.2700 ca         1 UNL      -0.129500
     11 C8           1.0900     1.1790     0.9410 ca         1 UNL      -0.129500
     12 C9          -0.5130     0.1550    -1.1000 ca         1 UNL      -0.113500
     13 C10         -0.2930     1.1060     1.1100 ca         1 UNL      -0.113500
     14 C11         -3.3740     1.3490    -0.7490 c3         1 UNL      -0.090100
     15 C12         -3.1000    -0.9230     0.2330 c          1 UNL       0.641100
     16 H            4.9780    -0.2530    -0.0730 hc         1 UNL       0.043700
     17 H1           3.3790     1.0240    -1.4850 hc         1 UNL       0.048200
     18 H2           3.5300     1.6910     0.1180 hc         1 UNL       0.048200
     19 H3          -2.8240     0.8900     1.2740 hc         1 UNL       0.085700
     20 H4           2.5790    -1.1170     1.6570 hc         1 UNL       0.036033
     21 H5           3.7960     0.0880     2.1460 hc         1 UNL       0.036033
     22 H6           4.2660    -1.5850     1.8370 hc         1 UNL       0.036033
     23 H7           4.1780    -2.4810    -0.6300 hc         1 UNL       0.036033
     24 H8           2.4960    -1.9690    -0.6860 hc         1 UNL       0.036033
     25 H9           3.6490    -1.3890    -1.9110 hc         1 UNL       0.036033
     26 H10          1.3080    -0.1100    -2.2040 ha         1 UNL       0.135000
     27 H11          1.7020     1.5850     1.7400 ha         1 UNL       0.135000
     28 H12         -1.1210    -0.2450    -1.9070 ha         1 UNL       0.143000
     29 H13         -0.7290     1.4530     2.0430 ha         1 UNL       0.143000
     30 H14         -3.0010     2.3790    -0.7840 hc         1 UNL       0.051033
     31 H15         -3.3030     0.9290    -1.7580 hc         1 UNL       0.051033
     32 H16         -4.4360     1.3890    -0.4830 hc         1 UNL       0.051033
     33 H17         -4.7640    -1.9310     0.3780 ho         1 UNL       0.443000
@<TRIPOS>BOND
     1     1    15 1   
     2     1    33 1   
     3     2    15 2   
     4     3     4 1   
     5     3     8 1   
     6     3     9 1   
     7     3    16 1   
     8     4     5 1   
     9     4    17 1   
    10     4    18 1   
    11     5    10 ar  
    12     5    11 ar  
    13     6     7 1   
    14     6    12 ar  
    15     6    13 ar  
    16     7    14 1   
    17     7    15 1   
    18     7    19 1   
    19     8    20 1   
    20     8    21 1   
    21     8    22 1   
    22     9    23 1   
    23     9    24 1   
    24     9    25 1   
    25    10    12 ar  
    26    10    26 1   
    27    11    13 ar  
    28    11    27 1   
    29    12    28 1   
    30    13    29 1   
    31    14    30 1   
    32    14    31 1   
    33    14    32 1   
@<TRIPOS>SUBSTRUCTURE
     1 UNL         1 TEMP              0 ****  ****    0 ROOT
