@<TRIPOS>MOLECULE
222284
   80    83     1     0     0
SMALL
bcc


@<TRIPOS>ATOM
      1 O            8.4280     0.6440    -0.1450 oh         1 UNL      -0.600800
      2 C           -0.2870     0.0120     0.1260 c5         1 UNL      -0.044000
      3 C1           0.6660    -1.1090     0.5850 c5         1 UNL      -0.065700
      4 C2           2.0570    -1.0190    -0.0510 c6         1 UNL      -0.046700
      5 C3           2.6950     0.3600     0.2870 c6         1 UNL      -0.048700
      6 C4          -1.5630    -0.4190     0.8900 c5         1 UNL      -0.053700
      7 C5           0.3170     1.3470     0.5840 c6         1 UNL      -0.065400
      8 C6           4.1200     0.5180    -0.3800 c6         1 UNL       0.000200
      9 C7          -0.1510    -2.3820     0.3890 c5         1 UNL      -0.074400
     10 C8           1.7320     1.5490     0.0160 c6         1 UNL      -0.075400
     11 C9          -1.5950    -1.9550     0.7120 c5         1 UNL      -0.079400
     12 C10          2.9600    -2.1560     0.4530 c6         1 UNL      -0.042200
     13 C11         -2.8640     0.2520     0.4750 c3         1 UNL      -0.057700
     14 C12         -0.5350     0.0430    -1.4030 c3         1 UNL      -0.082100
     15 C13          4.9490    -0.7620    -0.2060 c2         1 UNL      -0.105400
     16 C14          4.8560     1.7010     0.3160 c6         1 UNL      -0.070400
     17 C15          4.4120    -1.9330     0.1790 c2         1 UNL      -0.167200
     18 C16          4.0030     0.8090    -1.8960 c3         1 UNL      -0.083100
     19 C17          6.4320    -0.6660    -0.4790 c6         1 UNL      -0.075200
     20 C18         -4.0380    -0.3130     1.3030 c3         1 UNL      -0.080400
     21 C19          6.3410     1.8090    -0.0270 c6         1 UNL      -0.075400
     22 C20          7.0720     0.5030     0.2650 c6         1 UNL       0.145100
     23 C21         -2.7410     1.7730     0.6170 c3         1 UNL      -0.090100
     24 C22         -5.4120     0.3350     1.0660 c3         1 UNL      -0.075400
     25 C23         -6.0130     0.1700    -0.3540 c3         1 UNL      -0.060700
     26 C24         -7.3510     0.9570    -0.5290 c3         1 UNL      -0.064700
     27 C25         -6.1390    -1.3290    -0.7210 c3         1 UNL      -0.079400
     28 C26         -7.1850     2.4550    -0.2410 c3         1 UNL      -0.090100
     29 C27         -8.5120     0.4010     0.3000 c3         1 UNL      -0.090100
     30 C28         -6.6530    -1.5940    -2.1300 c3         1 UNL      -0.093100
     31 H            0.8140    -1.0090     1.6730 hc         1 UNL       0.045700
     32 H1           1.9670    -1.1250    -1.1370 hc         1 UNL       0.058700
     33 H2           2.8520     0.3580     1.3780 hc         1 UNL       0.047700
     34 H3          -1.4040    -0.2230     1.9620 hc         1 UNL       0.046700
     35 H4           0.3700     1.3830     1.6800 hc         1 UNL       0.041700
     36 H5          -0.2620     2.2160     0.2720 hc         1 UNL       0.041700
     37 H6           0.1830    -3.1890     1.0490 hc         1 UNL       0.041700
     38 H7          -0.0820    -2.7490    -0.6420 hc         1 UNL       0.041700
     39 H8           1.6470     1.7370    -1.0590 hc         1 UNL       0.041200
     40 H9           2.1450     2.4650     0.4550 hc         1 UNL       0.041200
     41 H10         -2.2570    -2.2670    -0.1040 hc         1 UNL       0.042200
     42 H11         -1.9450    -2.4430     1.6280 hc         1 UNL       0.042200
     43 H12          2.6520    -3.0950    -0.0240 hc         1 UNL       0.049200
     44 H13          2.8390    -2.2950     1.5340 hc         1 UNL       0.049200
     45 H14         -3.0800     0.0300    -0.5770 hc         1 UNL       0.052700
     46 H15         -1.1520     0.8980    -1.6960 hc         1 UNL       0.035367
     47 H16          0.3920     0.1240    -1.9770 hc         1 UNL       0.035367
     48 H17         -1.0430    -0.8590    -1.7600 hc         1 UNL       0.035367
     49 H18          4.7710     1.5960     1.4070 hc         1 UNL       0.044700
     50 H19          4.3760     2.6530     0.0600 hc         1 UNL       0.044700
     51 H20          5.0550    -2.8010     0.3050 ha         1 UNL       0.119000
     52 H21          3.3960     0.0550    -2.4090 hc         1 UNL       0.037367
     53 H22          3.5530     1.7880    -2.0870 hc         1 UNL       0.037367
     54 H23          4.9780     0.8210    -2.3940 hc         1 UNL       0.037367
     55 H24          6.9540    -1.5910    -0.2000 hc         1 UNL       0.051200
     56 H25          6.6030    -0.5610    -1.5580 hc         1 UNL       0.051200
     57 H26         -4.1230    -1.3960     1.1690 hc         1 UNL       0.041700
     58 H27         -3.8020    -0.1750     2.3680 hc         1 UNL       0.041700
     59 H28          6.4750     2.0910    -1.0790 hc         1 UNL       0.055200
     60 H29          6.7980     2.6220     0.5510 hc         1 UNL       0.055200
     61 H30          7.0670     0.3130     1.3450 h1         1 UNL       0.035700
     62 H31         -2.1700     2.2060    -0.2040 hc         1 UNL       0.033367
     63 H32         -2.3020     2.0620     1.5770 hc         1 UNL       0.033367
     64 H33         -3.7090     2.2740     0.5420 hc         1 UNL       0.033367
     65 H34         -5.3700     1.3860     1.3570 hc         1 UNL       0.041700
     66 H35         -6.1020    -0.1290     1.7840 hc         1 UNL       0.041700
     67 H36         -5.3010     0.6160    -1.0630 hc         1 UNL       0.049700
     68 H37          8.8820    -0.1930     0.0510 ho         1 UNL       0.398000
     69 H38         -7.6410     0.8840    -1.5850 hc         1 UNL       0.045700
     70 H39         -5.1510    -1.8000    -0.6630 hc         1 UNL       0.040200
     71 H40         -6.7720    -1.8530     0.0050 hc         1 UNL       0.040200
     72 H41         -6.3170     2.8620    -0.7680 hc         1 UNL       0.032867
     73 H42         -7.0730     2.6600     0.8280 hc         1 UNL       0.032867
     74 H43         -8.0680     3.0060    -0.5840 hc         1 UNL       0.032867
     75 H44         -9.4260     0.9750     0.1100 hc         1 UNL       0.032867
     76 H45         -8.3070     0.4560     1.3730 hc         1 UNL       0.032867
     77 H46         -8.7290    -0.6400     0.0450 hc         1 UNL       0.032867
     78 H47         -7.7020    -1.3050    -2.2380 hc         1 UNL       0.032033
     79 H48         -6.5830    -2.6620    -2.3590 hc         1 UNL       0.032033
     80 H49         -6.0620    -1.0490    -2.8720 hc         1 UNL       0.032033
@<TRIPOS>BOND
     1     1    22 1   
     2     1    68 1   
     3     2     3 1   
     4     2     6 1   
     5     2     7 1   
     6     2    14 1   
     7     3     4 1   
     8     3     9 1   
     9     3    31 1   
    10     4     5 1   
    11     4    12 1   
    12     4    32 1   
    13     5     8 1   
    14     5    10 1   
    15     5    33 1   
    16     6    11 1   
    17     6    13 1   
    18     6    34 1   
    19     7    10 1   
    20     7    35 1   
    21     7    36 1   
    22     8    15 1   
    23     8    16 1   
    24     8    18 1   
    25     9    11 1   
    26     9    37 1   
    27     9    38 1   
    28    10    39 1   
    29    10    40 1   
    30    11    41 1   
    31    11    42 1   
    32    12    17 1   
    33    12    43 1   
    34    12    44 1   
    35    13    20 1   
    36    13    23 1   
    37    13    45 1   
    38    14    46 1   
    39    14    47 1   
    40    14    48 1   
    41    15    17 2   
    42    15    19 1   
    43    16    21 1   
    44    16    49 1   
    45    16    50 1   
    46    17    51 1   
    47    18    52 1   
    48    18    53 1   
    49    18    54 1   
    50    19    22 1   
    51    19    55 1   
    52    19    56 1   
    53    20    24 1   
    54    20    57 1   
    55    20    58 1   
    56    21    22 1   
    57    21    59 1   
    58    21    60 1   
    59    22    61 1   
    60    23    62 1   
    61    23    63 1   
    62    23    64 1   
    63    24    25 1   
    64    24    65 1   
    65    24    66 1   
    66    25    26 1   
    67    25    27 1   
    68    25    67 1   
    69    26    28 1   
    70    26    29 1   
    71    26    69 1   
    72    27    30 1   
    73    27    70 1   
    74    27    71 1   
    75    28    72 1   
    76    28    73 1   
    77    28    74 1   
    78    29    75 1   
    79    29    76 1   
    80    29    77 1   
    81    30    78 1   
    82    30    79 1   
    83    30    80 1   
@<TRIPOS>SUBSTRUCTURE
     1 UNL         1 TEMP              0 ****  ****    0 ROOT
