@<TRIPOS>MOLECULE
156391
 31 32 0 0 0
SMALL
GASTEIGER

@<TRIPOS>ATOM
      1 O          -4.6881   -0.1815   -0.2526 O.3     1  UNL1       -0.4951
      2 O           5.0783    0.7631   -0.4703 O.3     1  UNL1       -0.4802
      3 O           3.0804    1.2333   -1.4314 O.2     1  UNL1       -0.2503
      4 C           3.1415   -0.3998    0.3840 C.3     1  UNL1        0.0784
      5 C           1.6726   -0.5832    0.2040 C.ar    1  UNL1       -0.0334
      6 C          -0.5809    0.3324    0.2498 C.ar    1  UNL1       -0.0174
      7 C          -1.0939   -0.9290   -0.1355 C.ar    1  UNL1       -0.0144
      8 C           0.8050    0.4888    0.4154 C.ar    1  UNL1       -0.0501
      9 C           1.1681   -1.8237   -0.1750 C.ar    1  UNL1       -0.0572
     10 C          -0.2060   -1.9969   -0.3440 C.ar    1  UNL1       -0.0536
     11 C           3.5460   -0.0026    1.8183 C.3     1  UNL1       -0.0482
     12 C          -1.4687    1.4004    0.4582 C.ar    1  UNL1       -0.0506
     13 C          -2.4796   -1.0854   -0.3012 C.ar    1  UNL1       -0.0122
     14 C          -3.3472   -0.0133   -0.0899 C.ar    1  UNL1        0.1207
     15 C           3.7333    0.6153   -0.6004 C.2     1  UNL1        0.3119
     16 C          -2.8427    1.2271    0.2891 C.ar    1  UNL1       -0.0194
     17 C          -5.5181    0.9551   -0.0185 C.3     1  UNL1        0.0788
     18 H           3.6438   -1.3498    0.1536 H       1  UNL1        0.0459
     19 H           1.2016    1.4581    0.7128 H       1  UNL1        0.0627
     20 H           1.8297   -2.6692   -0.3436 H       1  UNL1        0.0621
     21 H          -0.5782   -2.9753   -0.6407 H       1  UNL1        0.0624
     22 H           4.6340   -0.0263    1.9433 H       1  UNL1        0.0241
     23 H           3.2107    1.0106    2.0662 H       1  UNL1        0.0241
     24 H           3.1108   -0.6925    2.5497 H       1  UNL1        0.0241
     25 H          -1.0955    2.3786    0.7549 H       1  UNL1        0.0625
     26 H          -2.8904   -2.0491   -0.5970 H       1  UNL1        0.0660
     27 H          -3.4593    2.1010    0.4696 H       1  UNL1        0.0654
     28 H           5.4377    1.4135   -1.1108 H       1  UNL1        0.2951
     29 H          -6.5525    0.6414   -0.1934 H       1  UNL1        0.0660
     30 H          -5.3049    1.7622   -0.7276 H       1  UNL1        0.0660
     31 H          -5.4576    1.2902    1.0226 H       1  UNL1        0.0660
@<TRIPOS>BOND
     1     1    14    1
     2     1    17    1
     3     2    15    1
     4     2    28    1
     5     3    15    2
     6     4     5    1
     7     4    11    1
     8     4    15    1
     9     4    18    1
    10     5     8   ar
    11     5     9   ar
    12     6     7   ar
    13     6     8   ar
    14     6    12   ar
    15     7    10   ar
    16     7    13   ar
    17     8    19    1
    18     9    10   ar
    19     9    20    1
    20    10    21    1
    21    11    22    1
    22    11    23    1
    23    11    24    1
    24    12    16   ar
    25    12    25    1
    26    13    14   ar
    27    13    26    1
    28    14    16   ar
    29    16    27    1
    30    17    29    1
    31    17    30    1
    32    17    31    1
