@<TRIPOS>MOLECULE
156391
   31    32     1     0     0
SMALL
bcc


@<TRIPOS>ATOM
      1 O           -4.6880    -0.1810    -0.2530 os         1 UNL      -0.327900
      2 O1           5.0780     0.7630    -0.4700 oh         1 UNL      -0.606100
      3 O2           3.0800     1.2330    -1.4310 o          1 UNL      -0.554000
      4 C            3.1420    -0.4000     0.3840 c3         1 UNL      -0.054400
      5 C1           1.6730    -0.5830     0.2040 ca         1 UNL      -0.106300
      6 C2          -0.5810     0.3320     0.2500 ca         1 UNL      -0.069000
      7 C3          -1.0940    -0.9290    -0.1360 ca         1 UNL       0.001000
      8 C4           0.8050     0.4890     0.4150 ca         1 UNL      -0.087000
      9 C5           1.1680    -1.8240    -0.1750 ca         1 UNL      -0.107000
     10 C6          -0.2060    -1.9970    -0.3440 ca         1 UNL      -0.126000
     11 C7           3.5460    -0.0030     1.8180 c3         1 UNL      -0.091100
     12 C8          -1.4690     1.4000     0.4580 ca         1 UNL      -0.079000
     13 C9          -2.4800    -1.0850    -0.3010 ca         1 UNL      -0.163000
     14 C10         -3.3470    -0.0130    -0.0900 ca         1 UNL       0.127100
     15 C11          3.7330     0.6150    -0.6000 c          1 UNL       0.641100
     16 C12         -2.8430     1.2270     0.2890 ca         1 UNL      -0.186000
     17 C13         -5.5180     0.9550    -0.0180 c3         1 UNL       0.113700
     18 H            3.6440    -1.3500     0.1540 hc         1 UNL       0.087700
     19 H1           1.2020     1.4580     0.7130 ha         1 UNL       0.155000
     20 H2           1.8300    -2.6690    -0.3440 ha         1 UNL       0.133000
     21 H3          -0.5780    -2.9750    -0.6410 ha         1 UNL       0.137000
     22 H4           4.6340    -0.0260     1.9430 hc         1 UNL       0.051033
     23 H5           3.2110     1.0110     2.0660 hc         1 UNL       0.051033
     24 H6           3.1110    -0.6930     2.5500 hc         1 UNL       0.051033
     25 H7          -1.0950     2.3790     0.7550 ha         1 UNL       0.139000
     26 H8          -2.8900    -2.0490    -0.5970 ha         1 UNL       0.151000
     27 H9          -3.4590     2.1010     0.4700 ha         1 UNL       0.139000
     28 H10          5.4380     1.4130    -1.1110 ho         1 UNL       0.443000
     29 H11         -6.5530     0.6410    -0.1930 h1         1 UNL       0.044700
     30 H12         -5.3050     1.7620    -0.7280 h1         1 UNL       0.044700
     31 H13         -5.4580     1.2900     1.0230 h1         1 UNL       0.044700
@<TRIPOS>BOND
     1     1    14 1   
     2     1    17 1   
     3     2    15 1   
     4     2    28 1   
     5     3    15 2   
     6     4     5 1   
     7     4    11 1   
     8     4    15 1   
     9     4    18 1   
    10     5     8 ar  
    11     5     9 ar  
    12     6     7 ar  
    13     6     8 ar  
    14     6    12 ar  
    15     7    10 ar  
    16     7    13 ar  
    17     8    19 1   
    18     9    10 ar  
    19     9    20 1   
    20    10    21 1   
    21    11    22 1   
    22    11    23 1   
    23    11    24 1   
    24    12    16 ar  
    25    12    25 1   
    26    13    14 ar  
    27    13    26 1   
    28    14    16 ar  
    29    16    27 1   
    30    17    29 1   
    31    17    30 1   
    32    17    31 1   
@<TRIPOS>SUBSTRUCTURE
     1 UNL         1 TEMP              0 ****  ****    0 ROOT
