@<TRIPOS>MOLECULE
1135
   15    15     1     0     0
SMALL
bcc


@<TRIPOS>ATOM
      1 O           -1.5190     1.8070    -0.0010 o          1 UNL      -0.606500
      2 O1           2.8390     0.2910    -0.0010 o          1 UNL      -0.638500
      3 N            0.6640     1.0620     0.0010 ns         1 UNL      -0.584500
      4 N1           1.1150    -1.2320    -0.0000 ns         1 UNL      -0.471100
      5 C           -1.1610    -0.5430     0.0000 cc         1 UNL      -0.253400
      6 C1          -0.7130     0.8800     0.0000 c          1 UNL       0.716700
      7 C2          -0.2260    -1.5010    -0.0000 cd         1 UNL       0.037600
      8 C3          -2.6300    -0.8190    -0.0000 c3         1 UNL      -0.030900
      9 C4           1.6310     0.0540     0.0000 c          1 UNL       0.802500
     10 H           -0.4790    -2.5550    -0.0000 h4         1 UNL       0.163000
     11 H1           1.0010     2.0210     0.0010 hn         1 UNL       0.354500
     12 H2           1.7560    -2.0190    -0.0010 hn         1 UNL       0.354500
     13 H3          -3.1000    -0.3860    -0.8890 hc         1 UNL       0.052033
     14 H4          -3.1010    -0.3860     0.8890 hc         1 UNL       0.052033
     15 H5          -2.8430    -1.8930    -0.0000 hc         1 UNL       0.052033
@<TRIPOS>BOND
     1     1     6 2   
     2     2     9 2   
     3     3     6 1   
     4     3     9 1   
     5     3    11 1   
     6     4     7 1   
     7     4     9 1   
     8     4    12 1   
     9     5     6 1   
    10     5     7 2   
    11     5     8 1   
    12     7    10 1   
    13     8    13 1   
    14     8    14 1   
    15     8    15 1   
@<TRIPOS>SUBSTRUCTURE
     1 UNL         1 TEMP              0 ****  ****    0 ROOT
