@<TRIPOS>MOLECULE
9828112
 19 19 0 0 0
SMALL
GASTEIGER

@<TRIPOS>ATOM
      1 O          -0.2075   -1.0301    0.3508 O.3     1  UNL1       -0.3434
      2 O           1.2403    1.6969    0.7451 O.3     1  UNL1       -0.3890
      3 O           2.1353   -1.1696    0.5030 O.3     1  UNL1       -0.3669
      4 O          -2.9460   -0.5071    0.2432 O.3     1  UNL1       -0.3924
      5 C           0.3656    1.1951   -0.2629 C.3     1  UNL1        0.0882
      6 C          -0.7086    0.3207    0.3704 C.3     1  UNL1        0.1105
      7 C           1.1126    0.2297   -1.1581 C.3     1  UNL1        0.0268
      8 C           1.0240   -1.0735   -0.3808 C.3     1  UNL1        0.1591
      9 C          -2.0157    0.3378   -0.4109 C.3     1  UNL1        0.0729
     10 H          -0.0317    2.0556   -0.8097 H       1  UNL1        0.0621
     11 H          -0.8913    0.5786    1.4196 H       1  UNL1        0.0646
     12 H           0.5712    0.1247   -2.1052 H       1  UNL1        0.0340
     13 H           2.1431    0.5358   -1.3619 H       1  UNL1        0.0340
     14 H           1.0306   -1.9512   -1.0328 H       1  UNL1        0.0908
     15 H          -1.8828   -0.0506   -1.4253 H       1  UNL1        0.0584
     16 H          -2.4369    1.3460   -0.4713 H       1  UNL1        0.0584
     17 H           0.7146    2.2744    1.3244 H       1  UNL1        0.2099
     18 H           2.3708   -0.2772    0.8068 H       1  UNL1        0.2125
     19 H          -3.1000   -0.1447    1.1323 H       1  UNL1        0.2095
@<TRIPOS>BOND
     1     1     6    1
     2     1     8    1
     3     2     5    1
     4     2    17    1
     5     3     8    1
     6     3    18    1
     7     4     9    1
     8     4    19    1
     9     5     6    1
    10     5     7    1
    11     5    10    1
    12     6     9    1
    13     6    11    1
    14     7     8    1
    15     7    12    1
    16     7    13    1
    17     8    14    1
    18     9    15    1
    19     9    16    1
