@<TRIPOS>MOLECULE
9828112
   19    19     1     0     0
SMALL
bcc


@<TRIPOS>ATOM
      1 O           -0.2070    -1.0300     0.3510 os         1 UNL      -0.449600
      2 O1           1.2400     1.6970     0.7450 oh         1 UNL      -0.591800
      3 O2           2.1350    -1.1700     0.5030 oh         1 UNL      -0.600800
      4 O3          -2.9460    -0.5070     0.2430 oh         1 UNL      -0.594800
      5 C            0.3660     1.1950    -0.2630 c5         1 UNL       0.118100
      6 C1          -0.7090     0.3210     0.3700 c5         1 UNL       0.055100
      7 C2           1.1130     0.2300    -1.1580 c5         1 UNL      -0.139400
      8 C3           1.0240    -1.0730    -0.3810 c5         1 UNL       0.334900
      9 C4          -2.0160     0.3380    -0.4110 c3         1 UNL       0.128400
     10 H           -0.0320     2.0560    -0.8100 h1         1 UNL       0.052700
     11 H1          -0.8910     0.5790     1.4200 h1         1 UNL       0.078700
     12 H2           0.5710     0.1250    -2.1050 hc         1 UNL       0.082200
     13 H3           2.1430     0.5360    -1.3620 hc         1 UNL       0.082200
     14 H4           1.0310    -1.9510    -1.0330 h2         1 UNL       0.103700
     15 H5          -1.8830    -0.0510    -1.4250 h1         1 UNL       0.048700
     16 H6          -2.4370     1.3460    -0.4710 h1         1 UNL       0.048700
     17 H7           0.7150     2.2740     1.3240 ho         1 UNL       0.407000
     18 H8           2.3710    -0.2770     0.8070 ho         1 UNL       0.416000
     19 H9          -3.1000    -0.1450     1.1320 ho         1 UNL       0.418000
@<TRIPOS>BOND
     1     1     6 1   
     2     1     8 1   
     3     2     5 1   
     4     2    17 1   
     5     3     8 1   
     6     3    18 1   
     7     4     9 1   
     8     4    19 1   
     9     5     6 1   
    10     5     7 1   
    11     5    10 1   
    12     6     9 1   
    13     6    11 1   
    14     7     8 1   
    15     7    12 1   
    16     7    13 1   
    17     8    14 1   
    18     9    15 1   
    19     9    16 1   
@<TRIPOS>SUBSTRUCTURE
     1 UNL         1 TEMP              0 ****  ****    0 ROOT
