@<TRIPOS>MOLECULE
2256
   28    28     1     0     0
SMALL
bcc


@<TRIPOS>ATOM
      1 Cl          -1.4420     3.8200    -0.1070 cl         1 UNL      -0.116000
      2 N            2.1600     0.4360     0.1060 nu         1 UNL      -0.826900
      3 N1          -2.2870    -1.0530     0.0330 nu         1 UNL      -0.848900
      4 N2          -0.0530    -0.3390     0.0700 nb         1 UNL      -0.834000
      5 N3           0.4260     2.0110     0.0070 nb         1 UNL      -0.811000
      6 N4          -1.8490     1.2490    -0.0310 nb         1 UNL      -0.810000
      7 C            2.7050    -0.9030     0.1660 c3         1 UNL       0.215500
      8 C1           4.1220    -0.8440     0.7200 c3         1 UNL      -0.114600
      9 C2           2.6780    -1.5260    -1.2240 c3         1 UNL      -0.114600
     10 C3           0.8050     0.7110     0.0600 ca         1 UNL       0.928900
     11 C4          -1.9030    -2.4290     0.0880 c3         1 UNL       0.217800
     12 C5          -1.3500     0.0040     0.0240 ca         1 UNL       0.932900
     13 C6          -3.1120    -3.3410     0.1240 c3         1 UNL      -0.114100
     14 C7          -0.9020     2.2020    -0.0360 ca         1 UNL       0.806000
     15 H            2.1150    -1.5230     0.8520 h1         1 UNL       0.082700
     16 H1           2.7910     1.2280     0.0470 hn         1 UNL       0.436800
     17 H2           4.5540    -1.8470     0.7980 hc         1 UNL       0.045200
     18 H3           4.7780    -0.2410     0.0810 hc         1 UNL       0.045200
     19 H4           4.1310    -0.3940     1.7190 hc         1 UNL       0.045200
     20 H5           1.6580    -1.6170    -1.6090 hc         1 UNL       0.045200
     21 H6           3.1150    -2.5300    -1.2060 hc         1 UNL       0.045200
     22 H7           3.2470    -0.9230    -1.9410 hc         1 UNL       0.045200
     23 H8          -1.2930    -2.6860    -0.7860 h1         1 UNL       0.053700
     24 H9          -1.2970    -2.6170     0.9820 h1         1 UNL       0.053700
     25 H10         -3.2650    -0.7920    -0.0060 hn         1 UNL       0.449800
     26 H11         -3.7350    -3.1330     1.0000 hc         1 UNL       0.046700
     27 H12         -3.7330    -3.2050    -0.7670 hc         1 UNL       0.046700
     28 H13         -2.8000    -4.3890     0.1670 hc         1 UNL       0.046700
@<TRIPOS>BOND
     1     1    14 1   
     2     2     7 1   
     3     2    10 1   
     4     2    16 1   
     5     3    11 1   
     6     3    12 1   
     7     3    25 1   
     8     4    10 ar  
     9     4    12 ar  
    10     5    10 ar  
    11     5    14 ar  
    12     6    12 ar  
    13     6    14 ar  
    14     7     8 1   
    15     7     9 1   
    16     7    15 1   
    17     8    17 1   
    18     8    18 1   
    19     8    19 1   
    20     9    20 1   
    21     9    21 1   
    22     9    22 1   
    23    11    13 1   
    24    11    23 1   
    25    11    24 1   
    26    13    26 1   
    27    13    27 1   
    28    13    28 1   
@<TRIPOS>SUBSTRUCTURE
     1 UNL         1 TEMP              0 ****  ****    0 ROOT
