@<TRIPOS>MOLECULE
6128
 47 50 0 0 0
SMALL
GASTEIGER

@<TRIPOS>ATOM
      1 O          -4.9441   -1.0694   -0.8762 O.2     1  UNL1       -0.2968
      2 O           5.5582    0.1496   -1.0388 O.2     1  UNL1       -0.2927
      3 C          -0.6332    0.7753    0.3577 C.3     1  UNL1       -0.0334
      4 C           0.1972   -0.4487   -0.1473 C.3     1  UNL1       -0.0288
      5 C          -2.0218    0.7137   -0.2841 C.3     1  UNL1       -0.0254
      6 C          -2.7776   -0.5708    0.1120 C.3     1  UNL1        0.0293
      7 C           1.6677   -0.4669    0.4229 C.3     1  UNL1       -0.0072
      8 C          -0.5680   -1.7904    0.0363 C.3     1  UNL1       -0.0483
      9 C          -2.0198   -1.7559   -0.4762 C.3     1  UNL1       -0.0404
     10 C           0.0926    2.0810    0.0130 C.3     1  UNL1       -0.0459
     11 C          -3.0274    1.8316   -0.0308 C.3     1  UNL1       -0.0424
     12 C           2.3124    0.9105    0.2197 C.2     1  UNL1       -0.0601
     13 C          -4.1178   -0.2402   -0.5195 C.2     1  UNL1        0.1395
     14 C           1.4888    2.1114    0.6219 C.3     1  UNL1       -0.0305
     15 C          -4.3245    1.2615   -0.6239 C.3     1  UNL1        0.0067
     16 C           2.4769   -1.5514   -0.3464 C.3     1  UNL1       -0.0367
     17 C          -3.0371   -0.7623    1.6177 C.3     1  UNL1       -0.0526
     18 C           1.6984   -0.7957    1.9327 C.3     1  UNL1       -0.0556
     19 C           3.9822   -1.4287   -0.1692 C.3     1  UNL1        0.0107
     20 C           3.5522    1.0952   -0.2640 C.2     1  UNL1       -0.0194
     21 C           4.4447   -0.0495   -0.5574 C.2     1  UNL1        0.1561
     22 H          -0.7373    0.7299    1.4473 H       1  UNL1        0.0307
     23 H           0.2905   -0.3155   -1.2378 H       1  UNL1        0.0312
     24 H          -1.8637    0.7045   -1.3768 H       1  UNL1        0.0313
     25 H          -0.5768   -2.0768    1.0929 H       1  UNL1        0.0269
     26 H          -0.0472   -2.5937   -0.4964 H       1  UNL1        0.0269
     27 H          -2.0154   -1.6981   -1.5725 H       1  UNL1        0.0275
     28 H          -2.5211   -2.6993   -0.2274 H       1  UNL1        0.0275
     29 H          -0.4739    2.9394    0.3921 H       1  UNL1        0.0271
     30 H           0.1611    2.2001   -1.0761 H       1  UNL1        0.0271
     31 H          -2.7501    2.7682   -0.5245 H       1  UNL1        0.0272
     32 H          -3.1408    2.0392    1.0386 H       1  UNL1        0.0272
     33 H           1.4110    2.1382    1.7158 H       1  UNL1        0.0310
     34 H           1.9790    3.0474    0.3268 H       1  UNL1        0.0310
     35 H          -4.4267    1.5313   -1.6790 H       1  UNL1        0.0342
     36 H          -5.2006    1.5778   -0.0538 H       1  UNL1        0.0342
     37 H           2.2555   -1.4793   -1.4206 H       1  UNL1        0.0278
     38 H           2.1716   -2.5573   -0.0339 H       1  UNL1        0.0278
     39 H          -3.6374    0.0482    2.0447 H       1  UNL1        0.0239
     40 H          -3.6017   -1.6869    1.7895 H       1  UNL1        0.0239
     41 H          -2.1163   -0.8305    2.2027 H       1  UNL1        0.0239
     42 H           1.0319   -0.1493    2.5120 H       1  UNL1        0.0238
     43 H           1.4011   -1.8316    2.1263 H       1  UNL1        0.0238
     44 H           2.7039   -0.6701    2.3514 H       1  UNL1        0.0238
     45 H           4.4803   -2.1578   -0.8178 H       1  UNL1        0.0345
     46 H           4.2887   -1.6257    0.8627 H       1  UNL1        0.0345
     47 H           3.9703    2.0862   -0.4056 H       1  UNL1        0.0652
@<TRIPOS>BOND
     1     1    13    2
     2     2    21    2
     3     3     4    1
     4     3     5    1
     5     3    10    1
     6     3    22    1
     7     4     7    1
     8     4     8    1
     9     4    23    1
    10     5     6    1
    11     5    11    1
    12     5    24    1
    13     6     9    1
    14     6    13    1
    15     6    17    1
    16     7    12    1
    17     7    16    1
    18     7    18    1
    19     8     9    1
    20     8    25    1
    21     8    26    1
    22     9    27    1
    23     9    28    1
    24    10    14    1
    25    10    29    1
    26    10    30    1
    27    11    15    1
    28    11    31    1
    29    11    32    1
    30    12    14    1
    31    12    20    2
    32    13    15    1
    33    14    33    1
    34    14    34    1
    35    15    35    1
    36    15    36    1
    37    16    19    1
    38    16    37    1
    39    16    38    1
    40    17    39    1
    41    17    40    1
    42    17    41    1
    43    18    42    1
    44    18    43    1
    45    18    44    1
    46    19    21    1
    47    19    45    1
    48    19    46    1
    49    20    21    1
    50    20    47    1
