@<TRIPOS>MOLECULE
6128
   47    50     1     0     0
SMALL
bcc


@<TRIPOS>ATOM
      1 O           -4.9440    -1.0690    -0.8760 o          1 UNL      -0.517100
      2 O1           5.5580     0.1500    -1.0390 o          1 UNL      -0.534100
      3 C           -0.6330     0.7750     0.3580 c6         1 UNL      -0.048700
      4 C1           0.1970    -0.4490    -0.1470 c6         1 UNL      -0.048700
      5 C2          -2.0220     0.7140    -0.2840 c5         1 UNL      -0.064700
      6 C3          -2.7780    -0.5710     0.1120 c5         1 UNL      -0.153000
      7 C4           1.6680    -0.4670     0.4230 c6         1 UNL      -0.014800
      8 C5          -0.5680    -1.7900     0.0360 c6         1 UNL      -0.076400
      9 C6          -2.0200    -1.7560    -0.4760 c6         1 UNL      -0.056400
     10 C7           0.0930     2.0810     0.0130 c6         1 UNL      -0.072400
     11 C8          -3.0270     1.8320    -0.0310 c5         1 UNL      -0.072400
     12 C9           2.3120     0.9100     0.2200 c2         1 UNL      -0.030400
     13 C10         -4.1180    -0.2400    -0.5190 c          1 UNL       0.577100
     14 C11          1.4890     2.1110     0.6220 c6         1 UNL      -0.054200
     15 C12         -4.3240     1.2620    -0.6240 c5         1 UNL      -0.188400
     16 C13          2.4770    -1.5510    -0.3460 c6         1 UNL      -0.070400
     17 C14         -3.0370    -0.7620     1.6180 c3         1 UNL      -0.083100
     18 C15          1.6980    -0.7960     1.9330 c3         1 UNL      -0.086100
     19 C16          3.9820    -1.4290    -0.1690 c6         1 UNL      -0.182400
     20 C17          3.5520     1.0950    -0.2640 ce         1 UNL      -0.263200
     21 C18          4.4450    -0.0500    -0.5570 c          1 UNL       0.569300
     22 H           -0.7370     0.7300     1.4470 hc         1 UNL       0.057700
     23 H1           0.2900    -0.3160    -1.2380 hc         1 UNL       0.052700
     24 H2          -1.8640     0.7050    -1.3770 hc         1 UNL       0.053700
     25 H3          -0.5770    -2.0770     1.0930 hc         1 UNL       0.044700
     26 H4          -0.0470    -2.5940    -0.4960 hc         1 UNL       0.044700
     27 H5          -2.0150    -1.6980    -1.5730 hc         1 UNL       0.053200
     28 H6          -2.5210    -2.6990    -0.2270 hc         1 UNL       0.053200
     29 H7          -0.4740     2.9390     0.3920 hc         1 UNL       0.047700
     30 H8           0.1610     2.2000    -1.0760 hc         1 UNL       0.047700
     31 H9          -2.7500     2.7680    -0.5240 hc         1 UNL       0.050200
     32 H10         -3.1410     2.0390     1.0390 hc         1 UNL       0.050200
     33 H11          1.4110     2.1380     1.7160 hc         1 UNL       0.056700
     34 H12          1.9790     3.0470     0.3270 hc         1 UNL       0.056700
     35 H13         -4.4270     1.5310    -1.6790 hc         1 UNL       0.075700
     36 H14         -5.2010     1.5780    -0.0540 hc         1 UNL       0.075700
     37 H15          2.2560    -1.4790    -1.4210 hc         1 UNL       0.051200
     38 H16          2.1720    -2.5570    -0.0340 hc         1 UNL       0.051200
     39 H17         -3.6370     0.0480     2.0450 hc         1 UNL       0.043700
     40 H18         -3.6020    -1.6870     1.7900 hc         1 UNL       0.043700
     41 H19         -2.1160    -0.8310     2.2030 hc         1 UNL       0.043700
     42 H20          1.0320    -0.1490     2.5120 hc         1 UNL       0.040700
     43 H21          1.4010    -1.8320     2.1260 hc         1 UNL       0.040700
     44 H22          2.7040    -0.6700     2.3510 hc         1 UNL       0.040700
     45 H23          4.4800    -2.1580    -0.8180 hc         1 UNL       0.072200
     46 H24          4.2890    -1.6260     0.8630 hc         1 UNL       0.072200
     47 H25          3.9700     2.0860    -0.4060 ha         1 UNL       0.148000
@<TRIPOS>BOND
     1     1    13 2   
     2     2    21 2   
     3     3     4 1   
     4     3     5 1   
     5     3    10 1   
     6     3    22 1   
     7     4     7 1   
     8     4     8 1   
     9     4    23 1   
    10     5     6 1   
    11     5    11 1   
    12     5    24 1   
    13     6     9 1   
    14     6    13 1   
    15     6    17 1   
    16     7    12 1   
    17     7    16 1   
    18     7    18 1   
    19     8     9 1   
    20     8    25 1   
    21     8    26 1   
    22     9    27 1   
    23     9    28 1   
    24    10    14 1   
    25    10    29 1   
    26    10    30 1   
    27    11    15 1   
    28    11    31 1   
    29    11    32 1   
    30    12    14 1   
    31    12    20 2   
    32    13    15 1   
    33    14    33 1   
    34    14    34 1   
    35    15    35 1   
    36    15    36 1   
    37    16    19 1   
    38    16    37 1   
    39    16    38 1   
    40    17    39 1   
    41    17    40 1   
    42    17    41 1   
    43    18    42 1   
    44    18    43 1   
    45    18    44 1   
    46    19    21 1   
    47    19    45 1   
    48    19    46 1   
    49    20    21 1   
    50    20    47 1   
@<TRIPOS>SUBSTRUCTURE
     1 UNL         1 TEMP              0 ****  ****    0 ROOT
