@<TRIPOS>MOLECULE
5962
   24    23     1     0     0
SMALL
bcc


@<TRIPOS>ATOM
      1 O           -2.7910    -1.6230    -0.3320 oh         1 LYS      -0.602100
      2 OXT         -3.5640     0.2620     0.6610 o          1 LYS      -0.560000
      3 N           -1.5030     1.7690    -0.0720 n8         1 LYS      -0.894800
      4 NZ           4.8580    -0.3940     0.2920 n8         1 LYS      -0.916800
      5 CG           1.1670     0.3290    -0.3050 c3         1 LYS      -0.076400
      6 CB          -0.1550    -0.2960     0.1590 c3         1 LYS      -0.073400
      7 CD           2.4070    -0.3830     0.2430 c3         1 LYS      -0.084400
      8 CA          -1.4130     0.3530    -0.4320 c3         1 LYS       0.137500
      9 CE           3.6880     0.3010    -0.2330 c3         1 LYS       0.159800
     10 C           -2.6940    -0.3180     0.0190 c          1 LYS       0.584100
     11 HG1          1.2000     1.3820     0.0010 hc         1 LYS       0.051700
     12 HG2          1.2020     0.3160    -1.4020 hc         1 LYS       0.051700
     13 HB1         -0.2040    -0.2620     1.2550 hc         1 LYS       0.057200
     14 HB2         -0.1480    -1.3610    -0.1050 hc         1 LYS       0.057200
     15 HD1          2.3980    -1.4310    -0.0810 hc         1 LYS       0.047200
     16 HD2          2.3690    -0.3830     1.3400 hc         1 LYS       0.047200
     17 HA          -1.3830     0.2890    -1.5260 h1         1 LYS       0.093700
     18 HE1          3.7080     1.3450     0.0990 h1         1 LYS       0.025200
     19 HE2          3.7330     0.2970    -1.3270 h1         1 LYS       0.025200
     20 H1          -1.5670     1.8680     0.9410 hn         1 LYS       0.364800
     21 H2          -2.3530     2.1750    -0.4610 hn         1 LYS       0.364800
     22 HZ1          4.8420    -0.3720     1.3110 hn         1 LYS       0.348300
     23 HZ2          5.7010     0.1030     0.0090 hn         1 LYS       0.348300
     24 H           -3.6270    -2.0270    -0.0160 ho         1 LYS       0.444000
@<TRIPOS>BOND
     1     1    10 1   
     2     1    24 1   
     3     2    10 2   
     4     3     8 1   
     5     3    20 1   
     6     3    21 1   
     7     4     9 1   
     8     4    22 1   
     9     4    23 1   
    10     5     6 1   
    11     5     7 1   
    12     5    11 1   
    13     5    12 1   
    14     6     8 1   
    15     6    13 1   
    16     6    14 1   
    17     7     9 1   
    18     7    15 1   
    19     7    16 1   
    20     8    10 1   
    21     8    17 1   
    22     9    18 1   
    23     9    19 1   
@<TRIPOS>SUBSTRUCTURE
     1 LYS         1 TEMP              0 ****  ****    0 ROOT
