@<TRIPOS>MOLECULE
2723872
   24    24     1     0     0
SMALL
bcc


@<TRIPOS>ATOM
      1 O            0.6620     1.3230    -0.0990 os         1 UNL      -0.439600
      2 O1           0.0900    -2.3090    -0.1070 oh         1 UNL      -0.596800
      3 O2           1.3200    -0.3530     1.4360 oh         1 UNL      -0.631800
      4 O3          -2.6060    -1.2360    -0.0850 oh         1 UNL      -0.607800
      5 O4          -2.0590     1.2720    -1.0690 oh         1 UNL      -0.593800
      6 O5           3.2710     0.4760    -0.3700 oh         1 UNL      -0.599800
      7 C           -0.2100    -0.9370    -0.3510 c6         1 UNL       0.105100
      8 C1           0.9860    -0.0640     0.0750 c6         1 UNL       0.271600
      9 C2          -1.4720    -0.5350     0.4180 c6         1 UNL       0.079100
     10 C3          -1.7210     0.9670     0.2860 c6         1 UNL       0.121100
     11 C4          -0.4710     1.7540     0.6620 c6         1 UNL       0.140400
     12 C5           2.2100    -0.3570    -0.7960 c3         1 UNL       0.118400
     13 H           -0.4000    -0.8300    -1.4270 h1         1 UNL       0.107700
     14 H1          -1.3730    -0.8120     1.4740 h1         1 UNL       0.061700
     15 H2          -2.5690     1.2770     0.9060 h1         1 UNL       0.055700
     16 H3          -0.6140     2.8160     0.4360 h1         1 UNL       0.068700
     17 H4          -0.2480     1.6650     1.7310 h1         1 UNL       0.068700
     18 H5           2.0170    -0.1490    -1.8530 h1         1 UNL       0.074700
     19 H6           2.5520    -1.3910    -0.6880 h1         1 UNL       0.074700
     20 H7           0.7360    -2.5960    -0.7740 ho         1 UNL       0.422000
     21 H8           2.2560    -0.1280     1.5720 ho         1 UNL       0.436000
     22 H9          -2.6220    -1.1370    -1.0510 ho         1 UNL       0.425000
     23 H10         -2.9290     0.8790    -1.2480 ho         1 UNL       0.422000
     24 H11          2.9750     1.3980    -0.4590 ho         1 UNL       0.418000
@<TRIPOS>BOND
     1     1     8 1   
     2     1    11 1   
     3     2     7 1   
     4     2    20 1   
     5     3     8 1   
     6     3    21 1   
     7     4     9 1   
     8     4    22 1   
     9     5    10 1   
    10     5    23 1   
    11     6    12 1   
    12     6    24 1   
    13     7     8 1   
    14     7     9 1   
    15     7    13 1   
    16     8    12 1   
    17     9    10 1   
    18     9    14 1   
    19    10    11 1   
    20    10    15 1   
    21    11    16 1   
    22    11    17 1   
    23    12    18 1   
    24    12    19 1   
@<TRIPOS>SUBSTRUCTURE
     1 UNL         1 TEMP              0 ****  ****    0 ROOT
