@<TRIPOS>MOLECULE
444679
   73    76     1     0     0
SMALL
bcc


@<TRIPOS>ATOM
      1 O            8.2910    -0.1010     0.2590 oh         1 UNL      -0.601800
      2 C           -0.4090     0.3340    -0.1000 c5         1 UNL      -0.042000
      3 C1           0.3530    -0.8640     0.5000 c5         1 UNL      -0.033500
      4 C2          -1.8280     0.0420     0.4460 c5         1 UNL      -0.051700
      5 C3           2.5560     0.4480     0.4290 c6         1 UNL      -0.015500
      6 C4           0.2260     1.6160     0.4650 c6         1 UNL      -0.067400
      7 C5           1.8190    -0.8660     0.1500 c2         1 UNL      -0.081400
      8 C6          -0.5550    -2.0550     0.1830 c5         1 UNL      -0.072400
      9 C7           4.0350     0.5100    -0.1710 c6         1 UNL       0.003200
     10 C8          -1.9810    -1.4870     0.2830 c5         1 UNL      -0.078400
     11 C9           1.7120     1.7120     0.0860 c6         1 UNL      -0.073400
     12 C10         -0.3890     0.3550    -1.6480 c3         1 UNL      -0.082100
     13 C11         -2.9710     0.8220    -0.1890 c3         1 UNL      -0.026500
     14 C12          4.6680    -0.8830    -0.2860 c2         1 UNL      -0.105400
     15 C13          4.8860     1.4070     0.7760 c6         1 UNL      -0.067400
     16 C14          2.4830    -1.9690    -0.2260 ce         1 UNL      -0.146000
     17 C15          4.0530     1.1090    -1.5990 c3         1 UNL      -0.086100
     18 C16          3.9180    -1.9960    -0.3220 ce         1 UNL      -0.132000
     19 C17          6.1690    -0.9700    -0.4300 c6         1 UNL      -0.038200
     20 C18          6.3880     1.3560     0.5070 c6         1 UNL      -0.113400
     21 C19          6.9020    -0.0800     0.5690 c6         1 UNL       0.145100
     22 C20         -2.7710     2.3280    -0.0020 c3         1 UNL      -0.087100
     23 C21         -4.2910     0.4000     0.4080 c2         1 UNL      -0.168200
     24 C22         -5.2920    -0.1430    -0.3020 c2         1 UNL      -0.166200
     25 C23         -6.6100    -0.5790     0.2990 c3         1 UNL      -0.031500
     26 C24         -7.8030     0.1970    -0.3280 c3         1 UNL      -0.060700
     27 C25         -6.7370    -2.0960     0.1180 c3         1 UNL      -0.087100
     28 C26         -7.6750     1.7130    -0.1310 c3         1 UNL      -0.090600
     29 C27         -9.1480    -0.2620     0.2550 c3         1 UNL      -0.090600
     30 H            0.3350    -0.7650     1.5990 hc         1 UNL       0.054700
     31 H1          -1.8280     0.2470     1.5280 hc         1 UNL       0.046700
     32 H2           2.6500     0.4530     1.5270 hc         1 UNL       0.052700
     33 H3           0.1370     1.6390     1.5580 hc         1 UNL       0.042200
     34 H4          -0.2470     2.5250     0.0950 hc         1 UNL       0.042200
     35 H5          -0.4040    -2.8810     0.8870 hc         1 UNL       0.045200
     36 H6          -0.3790    -2.4450    -0.8260 hc         1 UNL       0.045200
     37 H7          -2.5430    -1.7580    -0.6180 hc         1 UNL       0.044700
     38 H8          -2.5100    -1.9160     1.1420 hc         1 UNL       0.044700
     39 H9           1.7540     1.9310    -0.9850 hc         1 UNL       0.043700
     40 H10          2.1460     2.5840     0.5910 hc         1 UNL       0.043700
     41 H11          0.6250     0.2720    -2.0510 hc         1 UNL       0.038033
     42 H12         -0.9630    -0.4690    -2.0840 hc         1 UNL       0.038033
     43 H13         -0.8100     1.2870    -2.0410 hc         1 UNL       0.038033
     44 H14         -3.0080     0.6260    -1.2680 hc         1 UNL       0.054700
     45 H15          4.7290     1.0970     1.8180 hc         1 UNL       0.043700
     46 H16          4.5520     2.4500     0.7120 hc         1 UNL       0.043700
     47 H17          1.9760    -2.9170    -0.3690 ha         1 UNL       0.131000
     48 H18          5.0340     1.0230    -2.0780 hc         1 UNL       0.039367
     49 H19          3.3330     0.6010    -2.2520 hc         1 UNL       0.039367
     50 H20          3.8150     2.1790    -1.5930 hc         1 UNL       0.039367
     51 H21          4.3750    -2.9740    -0.4330 ha         1 UNL       0.128000
     52 H22          6.5240    -2.0020    -0.3100 hc         1 UNL       0.062200
     53 H23          6.4530    -0.6890    -1.4520 hc         1 UNL       0.062200
     54 H24          6.6260     1.8030    -0.4660 hc         1 UNL       0.047700
     55 H25          6.9180     1.9680     1.2470 hc         1 UNL       0.047700
     56 H26          6.7790    -0.4800     1.5830 h1         1 UNL       0.036700
     57 H27         -2.4270     2.5820     1.0060 hc         1 UNL       0.035700
     58 H28         -3.7160     2.8640    -0.1600 hc         1 UNL       0.035700
     59 H29         -2.0830     2.7370    -0.7460 hc         1 UNL       0.035700
     60 H30         -4.4190     0.5490     1.4780 ha         1 UNL       0.121000
     61 H31         -5.1660    -0.2930    -1.3720 ha         1 UNL       0.121000
     62 H32          8.7450     0.4660     0.9060 ho         1 UNL       0.399000
     63 H33         -6.5990    -0.3780     1.3800 hc         1 UNL       0.050700
     64 H34         -7.8270     0.0040    -1.4090 hc         1 UNL       0.045700
     65 H35         -7.5770    -2.4970     0.6930 hc         1 UNL       0.035033
     66 H36         -5.8370    -2.6130     0.4710 hc         1 UNL       0.035033
     67 H37         -6.8860    -2.3630    -0.9350 hc         1 UNL       0.035033
     68 H38         -8.5440     2.2340    -0.5480 hc         1 UNL       0.034200
     69 H39         -7.6060     1.9690     0.9310 hc         1 UNL       0.034200
     70 H40         -6.7900     2.1110    -0.6370 hc         1 UNL       0.034200
     71 H41         -9.1570    -0.1750     1.3460 hc         1 UNL       0.034200
     72 H42         -9.9700     0.3450    -0.1390 hc         1 UNL       0.034200
     73 H43         -9.3650    -1.3010    -0.0110 hc         1 UNL       0.034200
@<TRIPOS>BOND
     1     1    21 1   
     2     1    62 1   
     3     2     3 1   
     4     2     4 1   
     5     2     6 1   
     6     2    12 1   
     7     3     7 1   
     8     3     8 1   
     9     3    30 1   
    10     4    10 1   
    11     4    13 1   
    12     4    31 1   
    13     5     7 1   
    14     5     9 1   
    15     5    11 1   
    16     5    32 1   
    17     6    11 1   
    18     6    33 1   
    19     6    34 1   
    20     7    16 2   
    21     8    10 1   
    22     8    35 1   
    23     8    36 1   
    24     9    14 1   
    25     9    15 1   
    26     9    17 1   
    27    10    37 1   
    28    10    38 1   
    29    11    39 1   
    30    11    40 1   
    31    12    41 1   
    32    12    42 1   
    33    12    43 1   
    34    13    22 1   
    35    13    23 1   
    36    13    44 1   
    37    14    18 2   
    38    14    19 1   
    39    15    20 1   
    40    15    45 1   
    41    15    46 1   
    42    16    18 1   
    43    16    47 1   
    44    17    48 1   
    45    17    49 1   
    46    17    50 1   
    47    18    51 1   
    48    19    21 1   
    49    19    52 1   
    50    19    53 1   
    51    20    21 1   
    52    20    54 1   
    53    20    55 1   
    54    21    56 1   
    55    22    57 1   
    56    22    58 1   
    57    22    59 1   
    58    23    24 2   
    59    23    60 1   
    60    24    25 1   
    61    24    61 1   
    62    25    26 1   
    63    25    27 1   
    64    25    63 1   
    65    26    28 1   
    66    26    29 1   
    67    26    64 1   
    68    27    65 1   
    69    27    66 1   
    70    27    67 1   
    71    28    68 1   
    72    28    69 1   
    73    28    70 1   
    74    29    71 1   
    75    29    72 1   
    76    29    73 1   
@<TRIPOS>SUBSTRUCTURE
     1 UNL         1 TEMP              0 ****  ****    0 ROOT
