@<TRIPOS>MOLECULE
2244
   21    21     1     0     0
SMALL
bcc


@<TRIPOS>ATOM
      1 O            1.2330     0.5540     0.7790 os         1 UNL      -0.381200
      2 O1          -0.6950    -2.7150    -0.7500 oh         1 UNL      -0.605100
      3 O2           0.7960    -2.1840     0.8690 o          1 UNL      -0.565000
      4 O3           1.7810     0.8100    -1.4820 o          1 UNL      -0.518000
      5 C           -0.0860     0.6090     0.4400 ca         1 UNL       0.180100
      6 C1          -0.7930    -0.5510     0.1240 ca         1 UNL      -0.147600
      7 C2          -0.7290     1.8460     0.4130 ca         1 UNL      -0.147000
      8 C3          -2.1430    -0.4740    -0.2180 ca         1 UNL      -0.057000
      9 C4          -2.0790     1.9240     0.0710 ca         1 UNL      -0.082000
     10 C5          -2.7850     0.7640    -0.2450 ca         1 UNL      -0.154000
     11 C6          -0.1410    -1.8540     0.1480 c          1 UNL       0.665700
     12 C7           2.1090     0.6710    -0.3110 c          1 UNL       0.665100
     13 C8           3.5300     0.6000     0.1640 c3         1 UNL      -0.147100
     14 H           -0.1850     2.7550     0.6590 ha         1 UNL       0.154000
     15 H1          -2.7250    -1.3610    -0.4560 ha         1 UNL       0.159000
     16 H2          -2.5800     2.8870     0.0510 ha         1 UNL       0.141000
     17 H3          -3.8370     0.8240    -0.5090 ha         1 UNL       0.143000
     18 H4           3.7290     1.4180     0.8590 hc         1 UNL       0.082700
     19 H5           4.2050     0.6970    -0.6920 hc         1 UNL       0.082700
     20 H6           3.7110    -0.3660     0.6430 hc         1 UNL       0.082700
     21 H7          -0.2560    -3.5920    -0.7340 ho         1 UNL       0.448000
@<TRIPOS>BOND
     1     1     5 1   
     2     1    12 1   
     3     2    11 1   
     4     2    21 1   
     5     3    11 2   
     6     4    12 2   
     7     5     6 ar  
     8     5     7 ar  
     9     6     8 ar  
    10     6    11 1   
    11     7     9 ar  
    12     7    14 1   
    13     8    10 ar  
    14     8    15 1   
    15     9    10 ar  
    16     9    16 1   
    17    10    17 1   
    18    12    13 1   
    19    13    18 1   
    20    13    19 1   
    21    13    20 1   
@<TRIPOS>SUBSTRUCTURE
     1 UNL         1 TEMP              0 ****  ****    0 ROOT
