@<TRIPOS>MOLECULE
448537
   40    41     1     0     0
SMALL
bcc


@<TRIPOS>ATOM
      1 O           -5.9860     0.2500    -0.1270 oh         1 UNL      -0.498100
      2 O1           5.9860    -0.2500    -0.1270 oh         1 UNL      -0.498100
      3 C           -0.4340    -0.5220    -0.1290 ce         1 UNL      -0.051900
      4 C1           0.4340     0.5210    -0.1290 cf         1 UNL      -0.051900
      5 C2          -0.0170    -1.9790    -0.1820 c3         1 UNL      -0.044700
      6 C3           0.0170     1.9780    -0.1830 c3         1 UNL      -0.044700
      7 C4          -1.9020    -0.3170    -0.1290 ca         1 UNL      -0.084800
      8 C5           1.9020     0.3170    -0.1290 ca         1 UNL      -0.084800
      9 C6           0.1890    -2.5720     1.2060 c3         1 UNL      -0.087600
     10 C7          -0.1880     2.5720     1.2050 c3         1 UNL      -0.087600
     11 C8          -2.5660    -0.2250    -1.3360 ca         1 UNL      -0.084500
     12 C9           2.5660     0.2240    -1.3370 ca         1 UNL      -0.084500
     13 C10         -2.5650    -0.2250     1.0800 ca         1 UNL      -0.084500
     14 C11          2.5640     0.2260     1.0790 ca         1 UNL      -0.084500
     15 C12         -3.9480    -0.0330    -1.3350 ca         1 UNL      -0.186500
     16 C13          3.9480     0.0320    -1.3350 ca         1 UNL      -0.186500
     17 C14         -3.9460    -0.0330     1.0810 ca         1 UNL      -0.186500
     18 C15          3.9460     0.0340     1.0810 ca         1 UNL      -0.186500
     19 C16         -4.6380     0.0630    -0.1270 ca         1 UNL       0.123100
     20 C17          4.6380    -0.0630    -0.1270 ca         1 UNL       0.123100
     21 H            0.9050    -2.1010    -0.7620 hc         1 UNL       0.050700
     22 H1          -0.7680    -2.5720    -0.7180 hc         1 UNL       0.050700
     23 H2           0.7680     2.5720    -0.7200 hc         1 UNL       0.050700
     24 H3          -0.9050     2.1010    -0.7630 hc         1 UNL       0.050700
     25 H4           0.5210    -3.6120     1.1200 hc         1 UNL       0.035033
     26 H5          -0.7420    -2.5700     1.7820 hc         1 UNL       0.035033
     27 H6           0.9430    -2.0280     1.7800 hc         1 UNL       0.035033
     28 H7          -0.9420     2.0290     1.7800 hc         1 UNL       0.035033
     29 H8          -0.5210     3.6120     1.1190 hc         1 UNL       0.035033
     30 H9           0.7430     2.5710     1.7810 hc         1 UNL       0.035033
     31 H10         -2.0390    -0.2990    -2.2830 ha         1 UNL       0.138250
     32 H11          2.0390     0.2970    -2.2840 ha         1 UNL       0.138250
     33 H12         -2.0380    -0.2990     2.0270 ha         1 UNL       0.138250
     34 H13          2.0370     0.3000     2.0260 ha         1 UNL       0.138250
     35 H14         -4.4750     0.0400    -2.2830 ha         1 UNL       0.142500
     36 H15          4.4810    -0.0430    -2.2790 ha         1 UNL       0.142500
     37 H16         -4.4780     0.0420     2.0250 ha         1 UNL       0.142500
     38 H17          4.4720    -0.0390     2.0290 ha         1 UNL       0.142500
     39 H18         -6.2980     0.2930    -1.0470 ho         1 UNL       0.419000
     40 H19          6.2980    -0.2930     0.7940 ho         1 UNL       0.419000
@<TRIPOS>BOND
     1     1    19 1   
     2     1    39 1   
     3     2    20 1   
     4     2    40 1   
     5     3     4 2   
     6     3     5 1   
     7     3     7 1   
     8     4     6 1   
     9     4     8 1   
    10     5     9 1   
    11     5    21 1   
    12     5    22 1   
    13     6    10 1   
    14     6    23 1   
    15     6    24 1   
    16     7    11 ar  
    17     7    13 ar  
    18     8    12 ar  
    19     8    14 ar  
    20     9    25 1   
    21     9    26 1   
    22     9    27 1   
    23    10    28 1   
    24    10    29 1   
    25    10    30 1   
    26    11    15 ar  
    27    11    31 1   
    28    12    16 ar  
    29    12    32 1   
    30    13    17 ar  
    31    13    33 1   
    32    14    18 ar  
    33    14    34 1   
    34    15    19 ar  
    35    15    35 1   
    36    16    20 ar  
    37    16    36 1   
    38    17    19 ar  
    39    17    37 1   
    40    18    20 ar  
    41    18    38 1   
@<TRIPOS>SUBSTRUCTURE
     1 UNL         1 TEMP              0 ****  ****    0 ROOT
