@<TRIPOS>MOLECULE
10975657
 20 20 0 0 0
SMALL
GASTEIGER

@<TRIPOS>ATOM
      1 O          -0.1509   -1.7832    0.4100 O.3     1  UNL1       -0.3462
      2 O           0.2766    1.3490   -1.1447 O.3     1  UNL1       -0.3864
      3 O          -2.0291    1.3725    0.5022 O.3     1  UNL1       -0.3841
      4 O           2.7018    0.4717   -0.0890 O.3     1  UNL1       -0.3869
      5 O          -1.5432   -0.7862   -1.2263 O.3     1  UNL1       -0.3649
      6 C           0.3704    1.0655    0.2517 C.3     1  UNL1        0.1137
      7 C          -0.9502    0.4863    0.7668 C.3     1  UNL1        0.1339
      8 C           1.4766    0.0343    0.4813 C.3     1  UNL1        0.1069
      9 C          -1.2447   -0.8929    0.1634 C.3     1  UNL1        0.1850
     10 C           1.0928   -1.3171   -0.1156 C.3     1  UNL1        0.0792
     11 H           0.6102    2.0137    0.7451 H       1  UNL1        0.0647
     12 H          -0.8648    0.3810    1.8560 H       1  UNL1        0.0671
     13 H           1.6309   -0.0826    1.5606 H       1  UNL1        0.0643
     14 H          -2.1331   -1.3114    0.6499 H       1  UNL1        0.0935
     15 H           1.0461   -1.2826   -1.2109 H       1  UNL1        0.0587
     16 H           1.8603   -2.0600    0.1289 H       1  UNL1        0.0587
     17 H          -0.4730    1.9565   -1.2666 H       1  UNL1        0.2100
     18 H          -2.8370    0.9679    0.8614 H       1  UNL1        0.2101
     19 H           2.5517    0.6169   -1.0389 H       1  UNL1        0.2100
     20 H          -2.1093   -1.5423   -1.4568 H       1  UNL1        0.2126
@<TRIPOS>BOND
     1     1     9    1
     2     1    10    1
     3     2     6    1
     4     2    17    1
     5     3     7    1
     6     3    18    1
     7     4     8    1
     8     4    19    1
     9     5     9    1
    10     5    20    1
    11     6     7    1
    12     6     8    1
    13     6    11    1
    14     7     9    1
    15     7    12    1
    16     8    10    1
    17     8    13    1
    18     9    14    1
    19    10    15    1
    20    10    16    1
