@<TRIPOS>MOLECULE
10975657
   20    20     1     0     0
SMALL
bcc


@<TRIPOS>ATOM
      1 O           -0.1510    -1.7830     0.4100 os         1 UNL      -0.438600
      2 O1           0.2770     1.3490    -1.1450 oh         1 UNL      -0.600800
      3 O2          -2.0290     1.3730     0.5020 oh         1 UNL      -0.576800
      4 O3           2.7020     0.4720    -0.0890 oh         1 UNL      -0.583800
      5 O4          -1.5430    -0.7860    -1.2260 oh         1 UNL      -0.645800
      6 C            0.3700     1.0650     0.2520 c6         1 UNL       0.074100
      7 C1          -0.9500     0.4860     0.7670 c6         1 UNL       0.104100
      8 C2           1.4770     0.0340     0.4810 c6         1 UNL       0.084100
      9 C3          -1.2450    -0.8930     0.1630 c6         1 UNL       0.290900
     10 C4           1.0930    -1.3170    -0.1160 c6         1 UNL       0.095400
     11 H            0.6100     2.0140     0.7450 h1         1 UNL       0.103700
     12 H1          -0.8650     0.3810     1.8560 h1         1 UNL       0.096700
     13 H2           1.6310    -0.0830     1.5610 h1         1 UNL       0.090700
     14 H3          -2.1330    -1.3110     0.6500 h2         1 UNL       0.089700
     15 H4           1.0460    -1.2830    -1.2110 h1         1 UNL       0.062700
     16 H5           1.8600    -2.0600     0.1290 h1         1 UNL       0.062700
     17 H6          -0.4730     1.9560    -1.2670 ho         1 UNL       0.419000
     18 H7          -2.8370     0.9680     0.8610 ho         1 UNL       0.424000
     19 H8           2.5520     0.6170    -1.0390 ho         1 UNL       0.415000
     20 H9          -2.1090    -1.5420    -1.4570 ho         1 UNL       0.429000
@<TRIPOS>BOND
     1     1     9 1   
     2     1    10 1   
     3     2     6 1   
     4     2    17 1   
     5     3     7 1   
     6     3    18 1   
     7     4     8 1   
     8     4    19 1   
     9     5     9 1   
    10     5    20 1   
    11     6     7 1   
    12     6     8 1   
    13     6    11 1   
    14     7     9 1   
    15     7    12 1   
    16     8    10 1   
    17     8    13 1   
    18     9    14 1   
    19    10    15 1   
    20    10    16 1   
@<TRIPOS>SUBSTRUCTURE
     1 UNL         1 TEMP              0 ****  ****    0 ROOT
