@<TRIPOS>MOLECULE
3676
   39    39     1     0     0
SMALL
bcc


@<TRIPOS>ATOM
      1 O            0.6660    -0.1340     1.4610 o          1 UNL      -0.596100
      2 N            3.0940    -0.0510     0.1540 n3         1 UNL      -0.748600
      3 N1          -0.3990    -0.3960    -0.6150 ns         1 UNL      -0.459100
      4 C            1.9650    -0.7260    -0.4840 c3         1 UNL       0.090800
      5 C1           2.9040     1.3990     0.1310 c3         1 UNL       0.165800
      6 C2           4.3470    -0.4130    -0.5090 c3         1 UNL       0.165800
      7 C3          -1.7560    -0.1300    -0.3120 ca         1 UNL       0.036600
      8 C4           0.6850    -0.3830     0.2600 c          1 UNL       0.653100
      9 C5          -2.5860    -1.1740     0.0690 ca         1 UNL      -0.073800
     10 C6          -2.2320     1.1690    -0.4030 ca         1 UNL      -0.073800
     11 C7           4.0690     2.1160     0.7900 c3         1 UNL      -0.095600
     12 C8           4.5920    -1.9110    -0.4400 c3         1 UNL      -0.095600
     13 C9          -3.9230    -0.9120     0.3660 ca         1 UNL      -0.127000
     14 C10         -3.5700     1.4310    -0.1050 ca         1 UNL      -0.127000
     15 C11         -2.0880    -2.5790     0.1710 c3         1 UNL      -0.059300
     16 C12         -1.3510     2.3050    -0.8120 c3         1 UNL      -0.059300
     17 C13         -4.4150     0.3900     0.2790 ca         1 UNL      -0.129000
     18 H            1.8850    -0.4520    -1.5440 h1         1 UNL       0.066200
     19 H1           2.0400    -1.8160    -0.4140 h1         1 UNL       0.066200
     20 H2           2.7850     1.7720    -0.8950 h1         1 UNL       0.037200
     21 H3           2.0090     1.7020     0.6820 h1         1 UNL       0.037200
     22 H4           4.3690    -0.0810    -1.5550 h1         1 UNL       0.037200
     23 H5           5.2030     0.0400    -0.0000 h1         1 UNL       0.037200
     24 H6          -0.2550    -0.8080    -1.5340 hn         1 UNL       0.325500
     25 H7           4.3240     1.6750     1.7590 hc         1 UNL       0.039867
     26 H8           4.9620     2.1380     0.1580 hc         1 UNL       0.039867
     27 H9           3.7960     3.1620     0.9730 hc         1 UNL       0.039867
     28 H10          4.4520    -2.2990     0.5740 hc         1 UNL       0.039867
     29 H11          3.9510    -2.4720    -1.1270 hc         1 UNL       0.039867
     30 H12          5.6250    -2.1270    -0.7330 hc         1 UNL       0.039867
     31 H13         -4.5960    -1.7110     0.6680 ha         1 UNL       0.132000
     32 H14         -3.9700     2.4390    -0.1670 ha         1 UNL       0.132000
     33 H15         -1.6510    -2.9030    -0.7800 hc         1 UNL       0.048367
     34 H16         -1.3360    -2.6620     0.9620 hc         1 UNL       0.048367
     35 H17         -2.8950    -3.2810     0.4100 hc         1 UNL       0.048367
     36 H18         -0.8720     2.0950    -1.7730 hc         1 UNL       0.048367
     37 H19         -1.9160     3.2360    -0.9310 hc         1 UNL       0.048367
     38 H20         -0.5810     2.4820    -0.0540 hc         1 UNL       0.048367
     39 H21         -5.4570     0.5940     0.5110 ha         1 UNL       0.132000
@<TRIPOS>BOND
     1     1     8 2   
     2     2     4 1   
     3     2     5 1   
     4     2     6 1   
     5     3     7 1   
     6     3     8 1   
     7     3    24 1   
     8     4     8 1   
     9     4    18 1   
    10     4    19 1   
    11     5    11 1   
    12     5    20 1   
    13     5    21 1   
    14     6    12 1   
    15     6    22 1   
    16     6    23 1   
    17     7     9 ar  
    18     7    10 ar  
    19     9    13 ar  
    20     9    15 1   
    21    10    14 ar  
    22    10    16 1   
    23    11    25 1   
    24    11    26 1   
    25    11    27 1   
    26    12    28 1   
    27    12    29 1   
    28    12    30 1   
    29    13    17 ar  
    30    13    31 1   
    31    14    17 ar  
    32    14    32 1   
    33    15    33 1   
    34    15    34 1   
    35    15    35 1   
    36    16    36 1   
    37    16    37 1   
    38    16    38 1   
    39    17    39 1   
@<TRIPOS>SUBSTRUCTURE
     1 UNL         1 TEMP              0 ****  ****    0 ROOT
