@<TRIPOS>MOLECULE
3676
 39 39 0 0 0
SMALL
GASTEIGER

@<TRIPOS>ATOM
      1 O           0.6658   -0.1341    1.4612 O.2     1  UNL1       -0.2741
      2 N           3.0943   -0.0513    0.1541 N.3     1  UNL1       -0.2945
      3 N          -0.3988   -0.3956   -0.6150 N.am    1  UNL1       -0.2840
      4 C           1.9647   -0.7259   -0.4841 C.3     1  UNL1        0.0760
      5 C           2.9035    1.3985    0.1306 C.3     1  UNL1       -0.0035
      6 C           4.3466   -0.4130   -0.5090 C.3     1  UNL1       -0.0035
      7 C          -1.7556   -0.1301   -0.3123 C.ar    1  UNL1        0.0393
      8 C           0.6855   -0.3834    0.2600 C.2     1  UNL1        0.2313
      9 C          -2.5858   -1.1738    0.0688 C.ar    1  UNL1       -0.0290
     10 C          -2.2323    1.1693   -0.4028 C.ar    1  UNL1       -0.0290
     11 C           4.0688    2.1164    0.7901 C.3     1  UNL1       -0.0523
     12 C           4.5916   -1.9108   -0.4404 C.3     1  UNL1       -0.0523
     13 C          -3.9233   -0.9124    0.3660 C.ar    1  UNL1       -0.0571
     14 C          -3.5698    1.4306   -0.1054 C.ar    1  UNL1       -0.0571
     15 C          -2.0884   -2.5795    0.1705 C.3     1  UNL1       -0.0379
     16 C          -1.3515    2.3053   -0.8116 C.3     1  UNL1       -0.0379
     17 C          -4.4152    0.3898    0.2790 C.ar    1  UNL1       -0.0611
     18 H           1.8847   -0.4518   -1.5436 H       1  UNL1        0.0522
     19 H           2.0397   -1.8162   -0.4137 H       1  UNL1        0.0522
     20 H           2.7853    1.7718   -0.8951 H       1  UNL1        0.0424
     21 H           2.0086    1.7019    0.6821 H       1  UNL1        0.0424
     22 H           4.3689   -0.0807   -1.5546 H       1  UNL1        0.0424
     23 H           5.2034    0.0400   -0.0004 H       1  UNL1        0.0424
     24 H          -0.2548   -0.8084   -1.5341 H       1  UNL1        0.1549
     25 H           4.3240    1.6745    1.7594 H       1  UNL1        0.0242
     26 H           4.9621    2.1381    0.1583 H       1  UNL1        0.0242
     27 H           3.7962    3.1622    0.9729 H       1  UNL1        0.0242
     28 H           4.4517   -2.2992    0.5743 H       1  UNL1        0.0242
     29 H           3.9507   -2.4717   -1.1274 H       1  UNL1        0.0242
     30 H           5.6255   -2.1273   -0.7326 H       1  UNL1        0.0242
     31 H          -4.5959   -1.7110    0.6676 H       1  UNL1        0.0621
     32 H          -3.9698    2.4393   -0.1669 H       1  UNL1        0.0621
     33 H          -1.6513   -2.9034   -0.7798 H       1  UNL1        0.0278
     34 H          -1.3364   -2.6621    0.9619 H       1  UNL1        0.0278
     35 H          -2.8950   -3.2811    0.4096 H       1  UNL1        0.0278
     36 H          -0.8715    2.0953   -1.7733 H       1  UNL1        0.0278
     37 H          -1.9161    3.2364   -0.9311 H       1  UNL1        0.0278
     38 H          -0.5811    2.4817   -0.0539 H       1  UNL1        0.0278
     39 H          -5.4566    0.5935    0.5110 H       1  UNL1        0.0618
@<TRIPOS>BOND
     1     1     8    2
     2     2     4    1
     3     2     5    1
     4     2     6    1
     5     3     7    1
     6     3     8   am
     7     3    24    1
     8     4     8    1
     9     4    18    1
    10     4    19    1
    11     5    11    1
    12     5    20    1
    13     5    21    1
    14     6    12    1
    15     6    22    1
    16     6    23    1
    17     7     9   ar
    18     7    10   ar
    19     9    13   ar
    20     9    15    1
    21    10    14   ar
    22    10    16    1
    23    11    25    1
    24    11    26    1
    25    11    27    1
    26    12    28    1
    27    12    29    1
    28    12    30    1
    29    13    17   ar
    30    13    31    1
    31    14    17   ar
    32    14    32    1
    33    15    33    1
    34    15    34    1
    35    15    35    1
    36    16    36    1
    37    16    37    1
    38    16    38    1
    39    17    39    1
