@<TRIPOS>MOLECULE
12111
 27 28 0 0 0
SMALL
GASTEIGER

@<TRIPOS>ATOM
      1 O          -4.7307    0.0004    1.4064 O.3     1  UNL1       -0.5068
      2 O           4.7280   -0.0003    1.4064 O.3     1  UNL1       -0.5068
      3 C          -0.0014    0.0000   -1.6701 C.3     1  UNL1       -0.0024
      4 C          -1.2515    0.0001   -0.8573 C.ar    1  UNL1       -0.0428
      5 C           1.2693   -0.0001   -0.8440 C.ar    1  UNL1       -0.0428
      6 C          -1.8363    1.2080   -0.4771 C.ar    1  UNL1       -0.0548
      7 C           1.8336   -1.2080   -0.4770 C.ar    1  UNL1       -0.0548
      8 C          -1.8357   -1.2080   -0.4766 C.ar    1  UNL1       -0.0548
      9 C           1.8330    1.2080   -0.4766 C.ar    1  UNL1       -0.0548
     10 C          -3.0053    1.2077    0.2840 C.ar    1  UNL1       -0.0199
     11 C           3.0026   -1.2077    0.2841 C.ar    1  UNL1       -0.0199
     12 C          -3.0047   -1.2082    0.2843 C.ar    1  UNL1       -0.0199
     13 C           3.0020    1.2083    0.2844 C.ar    1  UNL1       -0.0199
     14 C          -3.5896   -0.0004    0.6647 C.ar    1  UNL1        0.1169
     15 C           3.5868    0.0005    0.6647 C.ar    1  UNL1        0.1169
     16 H           0.0043   -0.8649   -2.3483 H       1  UNL1        0.0361
     17 H           0.0044    0.8647   -2.3485 H       1  UNL1        0.0361
     18 H          -1.3924    2.1566   -0.7672 H       1  UNL1        0.0622
     19 H           1.3866   -2.1537   -0.7690 H       1  UNL1        0.0622
     20 H          -1.3912   -2.1565   -0.7663 H       1  UNL1        0.0622
     21 H           1.3855    2.1535   -0.7683 H       1  UNL1        0.0622
     22 H          -3.4511    2.1554    0.5736 H       1  UNL1        0.0654
     23 H           3.4484   -2.1555    0.5737 H       1  UNL1        0.0654
     24 H          -3.4553   -2.1525    0.5776 H       1  UNL1        0.0654
     25 H           3.4525    2.1526    0.5776 H       1  UNL1        0.0654
     26 H          -4.9946    0.9208    1.5778 H       1  UNL1        0.2921
     27 H           4.9918   -0.9207    1.5779 H       1  UNL1        0.2921
@<TRIPOS>BOND
     1     1    14    1
     2     1    26    1
     3     2    15    1
     4     2    27    1
     5     3     4    1
     6     3     5    1
     7     3    16    1
     8     3    17    1
     9     4     6   ar
    10     4     8   ar
    11     5     7   ar
    12     5     9   ar
    13     6    10   ar
    14     6    18    1
    15     7    11   ar
    16     7    19    1
    17     8    12   ar
    18     8    20    1
    19     9    13   ar
    20     9    21    1
    21    10    14   ar
    22    10    22    1
    23    11    15   ar
    24    11    23    1
    25    12    14   ar
    26    12    24    1
    27    13    15   ar
    28    13    25    1
