@<TRIPOS>MOLECULE
12111
   27    28     1     0     0
SMALL
bcc


@<TRIPOS>ATOM
      1 O           -4.7310     0.0000     1.4060 oh         1 UNL      -0.498100
      2 O1           4.7280    -0.0000     1.4060 oh         1 UNL      -0.498100
      3 C           -0.0010     0.0000    -1.6700 c3         1 UNL       0.017200
      4 C1          -1.2520     0.0000    -0.8570 ca         1 UNL      -0.112300
      5 C2           1.2690    -0.0000    -0.8440 ca         1 UNL      -0.112300
      6 C3          -1.8360     1.2080    -0.4770 ca         1 UNL      -0.089500
      7 C4           1.8340    -1.2080    -0.4770 ca         1 UNL      -0.089500
      8 C5          -1.8360    -1.2080    -0.4770 ca         1 UNL      -0.089500
      9 C6           1.8330     1.2080    -0.4770 ca         1 UNL      -0.089500
     10 C7          -3.0050     1.2080     0.2840 ca         1 UNL      -0.183250
     11 C8           3.0030    -1.2080     0.2840 ca         1 UNL      -0.183250
     12 C9          -3.0050    -1.2080     0.2840 ca         1 UNL      -0.183250
     13 C10          3.0020     1.2080     0.2840 ca         1 UNL      -0.183250
     14 C11         -3.5900    -0.0000     0.6650 ca         1 UNL       0.121600
     15 C12          3.5870     0.0010     0.6650 ca         1 UNL       0.121600
     16 H            0.0040    -0.8650    -2.3480 hc         1 UNL       0.054200
     17 H1           0.0040     0.8650    -2.3490 hc         1 UNL       0.054200
     18 H2          -1.3920     2.1570    -0.7670 ha         1 UNL       0.135250
     19 H3           1.3870    -2.1540    -0.7690 ha         1 UNL       0.135250
     20 H4          -1.3910    -2.1560    -0.7660 ha         1 UNL       0.135250
     21 H5           1.3850     2.1540    -0.7680 ha         1 UNL       0.135250
     22 H6          -3.4510     2.1550     0.5740 ha         1 UNL       0.142000
     23 H7           3.4480    -2.1550     0.5740 ha         1 UNL       0.142000
     24 H8          -3.4550    -2.1520     0.5780 ha         1 UNL       0.142000
     25 H9           3.4530     2.1530     0.5780 ha         1 UNL       0.142000
     26 H10         -4.9950     0.9210     1.5780 ho         1 UNL       0.418500
     27 H11          4.9920    -0.9210     1.5780 ho         1 UNL       0.418500
@<TRIPOS>BOND
     1     1    14 1   
     2     1    26 1   
     3     2    15 1   
     4     2    27 1   
     5     3     4 1   
     6     3     5 1   
     7     3    16 1   
     8     3    17 1   
     9     4     6 ar  
    10     4     8 ar  
    11     5     7 ar  
    12     5     9 ar  
    13     6    10 ar  
    14     6    18 1   
    15     7    11 ar  
    16     7    19 1   
    17     8    12 ar  
    18     8    20 1   
    19     9    13 ar  
    20     9    21 1   
    21    10    14 ar  
    22    10    22 1   
    23    11    15 ar  
    24    11    23 1   
    25    12    14 ar  
    26    12    24 1   
    27    13    15 ar  
    28    13    25 1   
@<TRIPOS>SUBSTRUCTURE
     1 UNL         1 TEMP              0 ****  ****    0 ROOT
