@<TRIPOS>MOLECULE
5839
   54    57     1     0     0
SMALL
bcc


@<TRIPOS>ATOM
      1 O           -0.0540     1.5060    -1.8730 oh         1 UNL      -0.590800
      2 O1          -1.8660    -1.0910    -2.0630 o          1 UNL      -0.505100
      3 O2          -5.0870    -0.3710    -0.2280 o          1 UNL      -0.516100
      4 O3           5.8150     0.8320     1.7810 o          1 UNL      -0.533100
      5 O4          -5.9860     2.0580     0.4900 oh         1 UNL      -0.588800
      6 C           -0.8780    -1.0660     0.5930 c5         1 UNL      -0.046700
      7 C1           0.4240    -1.0940    -0.2180 c6         1 UNL      -0.058700
      8 C2          -1.8630     0.0010     0.0990 c5         1 UNL      -0.156000
      9 C3           1.1190     0.3110    -0.0830 c6         1 UNL      -0.036700
     10 C4           2.5330     0.3280    -0.7830 c6         1 UNL      -0.006800
     11 C5           0.1530     1.4700    -0.4660 c6         1 UNL       0.145100
     12 C6          -1.2170     1.3840     0.2490 c6         1 UNL      -0.106400
     13 C7          -3.0630    -0.2740     1.0240 c5         1 UNL      -0.154700
     14 C8          -1.7310    -2.3280     0.6820 c5         1 UNL      -0.078400
     15 C9           1.3380    -2.2410     0.2590 c6         1 UNL      -0.067400
     16 C10         -3.1010    -1.8120     1.1530 c5         1 UNL      -0.076400
     17 C11          3.3200    -0.8220    -0.1410 c2         1 UNL      -0.032400
     18 C12          2.7360    -2.1950    -0.3560 c6         1 UNL      -0.056200
     19 C13          3.2950     1.6690    -0.5890 c6         1 UNL      -0.072400
     20 C14         -2.2900    -0.1900    -1.3460 c          1 UNL       0.594900
     21 C15          2.4610     0.1130    -2.3160 c3         1 UNL      -0.083100
     22 C16         -4.3670     0.2770     0.5300 c          1 UNL       0.530100
     23 C17          3.8730     1.8440     0.8040 c6         1 UNL      -0.183400
     24 C18          4.3780    -0.6610     0.6700 ce         1 UNL      -0.264200
     25 C19          4.7940     0.6910     1.1130 c          1 UNL       0.570300
     26 C20         -4.7360     1.6620     1.0150 c3         1 UNL       0.030400
     27 H           -0.5980    -0.8200     1.6310 hc         1 UNL       0.044700
     28 H1           0.2220    -1.2870    -1.2720 hc         1 UNL       0.092700
     29 H2           1.3060     0.4470     0.9950 hc         1 UNL       0.049700
     30 H3           0.6060     2.4270    -0.1860 h1         1 UNL       0.036700
     31 H4          -1.0700     1.6100     1.3130 hc         1 UNL       0.052700
     32 H5          -1.8790     2.1560    -0.1590 hc         1 UNL       0.052700
     33 H6          -2.8760     0.1370     2.0250 hc         1 UNL       0.068700
     34 H7          -1.3170    -3.0510     1.3930 hc         1 UNL       0.061200
     35 H8          -1.8220    -2.8370    -0.2830 hc         1 UNL       0.061200
     36 H9           0.8790    -3.2080     0.0200 hc         1 UNL       0.047700
     37 H10          1.4310    -2.2020     1.3530 hc         1 UNL       0.047700
     38 H11         -3.8960    -2.2950     0.5750 hc         1 UNL       0.061200
     39 H12         -3.2670    -2.0870     2.2020 hc         1 UNL       0.061200
     40 H13          2.6980    -2.4370    -1.4240 hc         1 UNL       0.059200
     41 H14          3.3550    -2.9720     0.1080 hc         1 UNL       0.059200
     42 H15          2.6630     2.5270    -0.8390 hc         1 UNL       0.051700
     43 H16          4.1350     1.7100    -1.2990 hc         1 UNL       0.051700
     44 H17         -2.9960     0.5560    -1.7510 h4         1 UNL      -0.004800
     45 H18          2.1320     1.0180    -2.8360 hc         1 UNL       0.047033
     46 H19          3.4510    -0.1350    -2.7210 hc         1 UNL       0.047033
     47 H20          1.7870    -0.6950    -2.6110 hc         1 UNL       0.047033
     48 H21          3.0940     1.8960     1.5700 hc         1 UNL       0.068200
     49 H22          4.4540     2.7720     0.8410 hc         1 UNL       0.068200
     50 H23          4.8980    -1.5040     1.1140 ha         1 UNL       0.149000
     51 H24         -0.6130     2.2760    -2.0700 ho         1 UNL       0.400000
     52 H25         -3.9860     2.3810     0.6820 h1         1 UNL       0.068200
     53 H26         -4.7920     1.6690     2.1070 h1         1 UNL       0.068200
     54 H27         -6.6600     1.4640     0.8620 ho         1 UNL       0.422000
@<TRIPOS>BOND
     1     1    11 1   
     2     1    51 1   
     3     2    20 2   
     4     3    22 2   
     5     4    25 2   
     6     5    26 1   
     7     5    54 1   
     8     6     7 1   
     9     6     8 1   
    10     6    14 1   
    11     6    27 1   
    12     7     9 1   
    13     7    15 1   
    14     7    28 1   
    15     8    12 1   
    16     8    13 1   
    17     8    20 1   
    18     9    10 1   
    19     9    11 1   
    20     9    29 1   
    21    10    17 1   
    22    10    19 1   
    23    10    21 1   
    24    11    12 1   
    25    11    30 1   
    26    12    31 1   
    27    12    32 1   
    28    13    16 1   
    29    13    22 1   
    30    13    33 1   
    31    14    16 1   
    32    14    34 1   
    33    14    35 1   
    34    15    18 1   
    35    15    36 1   
    36    15    37 1   
    37    16    38 1   
    38    16    39 1   
    39    17    18 1   
    40    17    24 2   
    41    18    40 1   
    42    18    41 1   
    43    19    23 1   
    44    19    42 1   
    45    19    43 1   
    46    20    44 1   
    47    21    45 1   
    48    21    46 1   
    49    21    47 1   
    50    22    26 1   
    51    23    25 1   
    52    23    48 1   
    53    23    49 1   
    54    24    25 1   
    55    24    50 1   
    56    26    52 1   
    57    26    53 1   
@<TRIPOS>SUBSTRUCTURE
     1 UNL         1 TEMP              0 ****  ****    0 ROOT
