@<TRIPOS>MOLECULE
6274
   20    20     1     0     0
SMALL
bcc


@<TRIPOS>ATOM
      1 O           -1.0690    -1.6920    -0.7660 oh         1 HIS      -0.581100
      2 OXT         -2.4950    -1.1220     0.9040 o          1 HIS      -0.581000
      3 ND1          1.6800     0.1410     1.1620 na         1 HIS      -0.306900
      4 N           -2.7490     1.3690    -0.2180 n8         1 HIS      -0.902800
      5 NE2          2.8200    -0.3370    -0.6820 nc         1 HIS      -0.670000
      6 CB          -0.3580     1.3000     0.3220 c3         1 HIS      -0.038100
      7 CA          -1.5060     0.6400    -0.4570 c3         1 HIS       0.130500
      8 CG           0.9670     0.6020     0.1190 cd         1 HIS      -0.239900
      9 C           -1.7500    -0.7920    -0.0100 c          1 HIS       0.652100
     10 CD2          1.6560     0.3150    -1.0030 cc         1 HIS       0.306200
     11 CE1          2.8040    -0.4250     0.6290 cd         1 HIS       0.393400
     12 HB1         -0.5940     1.3200     1.3950 hc         1 HIS       0.068200
     13 HB2         -0.2430     2.3450     0.0040 hc         1 HIS       0.068200
     14 HA          -1.3120     0.6420    -1.5360 h1         1 HIS       0.101700
     15 HD1          1.4440     0.1940     2.1450 hn         1 HIS       0.320700
     16 HD2          1.3990     0.5300    -2.0300 h4         1 HIS       0.040100
     17 H1          -2.6420     2.3350    -0.5280 hn         1 HIS       0.365300
     18 H2          -2.9360     1.4200     0.7830 hn         1 HIS       0.365300
     19 HE1          3.5660    -0.8810     1.2460 h5         1 HIS       0.062100
     20 H           -1.2420    -2.6140    -0.4800 ho         1 HIS       0.444000
@<TRIPOS>BOND
     1     1     9 1   
     2     1    20 1   
     3     2     9 2   
     4     3     8 1   
     5     3    11 1   
     6     3    15 1   
     7     4     7 1   
     8     4    17 1   
     9     4    18 1   
    10     5    10 1   
    11     5    11 2   
    12     6     7 1   
    13     6     8 1   
    14     6    12 1   
    15     6    13 1   
    16     7     9 1   
    17     7    14 1   
    18     8    10 2   
    19    10    16 1   
    20    11    19 1   
@<TRIPOS>SUBSTRUCTURE
     1 HIS         1 TEMP              0 ****  ****    0 ROOT
