@<TRIPOS>MOLECULE
6137
   20    19     1     0     0
SMALL
bcc


@<TRIPOS>ATOM
      1 SD           2.2860     0.9700     0.2800 ss         1 MET      -0.303200
      2 O           -1.1610     1.6400     0.6920 oh         1 MET      -0.612100
      3 OXT         -2.5910     0.3690    -0.5240 o          1 MET      -0.547000
      4 N           -1.3630    -1.8770     0.4990 n8         1 MET      -0.906800
      5 CB           0.4160    -0.8110    -0.8010 c3         1 MET      -0.071400
      6 CA          -0.5660    -0.6530     0.3690 c3         1 MET       0.131500
      7 CG           1.2660     0.4220    -1.1210 c3         1 MET      -0.026300
      8 C           -1.5490     0.4750     0.1110 c          1 MET       0.639100
      9 CE           3.2620    -0.5350     0.4960 c3         1 MET      -0.041000
     10 HB1          1.0600    -1.6830    -0.6350 hc         1 MET       0.065700
     11 HB2         -0.1540    -1.0440    -1.7130 hc         1 MET       0.065700
     12 HA          -0.0510    -0.4840     1.3190 h1         1 MET       0.065700
     13 HG1          0.6280     1.2590    -1.4240 h1         1 MET       0.086200
     14 HG2          1.9240     0.2090    -1.9700 h1         1 MET       0.086200
     15 H1          -1.9630    -1.8080     1.3200 hn         1 MET       0.366300
     16 H2          -0.7440    -2.6700     0.6670 hn         1 MET       0.366300
     17 HE1          2.6640    -1.3260     0.9560 h1         1 MET       0.063033
     18 HE2          4.0990    -0.3180     1.1650 h1         1 MET       0.063033
     19 HE3          3.6690    -0.8790    -0.4580 h1         1 MET       0.063033
     20 H           -1.8050     2.3620     0.5300 ho         1 MET       0.447000
@<TRIPOS>BOND
     1     1     7 1   
     2     1     9 1   
     3     2     8 1   
     4     2    20 1   
     5     3     8 2   
     6     4     6 1   
     7     4    15 1   
     8     4    16 1   
     9     5     6 1   
    10     5     7 1   
    11     5    10 1   
    12     5    11 1   
    13     6     8 1   
    14     6    12 1   
    15     7    13 1   
    16     7    14 1   
    17     9    17 1   
    18     9    18 1   
    19     9    19 1   
@<TRIPOS>SUBSTRUCTURE
     1 MET         1 TEMP              0 ****  ****    0 ROOT
