@<TRIPOS>MOLECULE
6140
   23    23     1     0     0
SMALL
bcc


@<TRIPOS>ATOM
      1 O           -1.5610    -1.5480    -1.0370 oh         1 PHE      -0.591100
      2 OXT         -3.1860    -1.0240     0.4550 o          1 PHE      -0.556000
      3 N           -2.7950     1.6330    -0.1120 n8         1 PHE      -0.902800
      4 CB          -0.6090     0.9810     0.7900 c3         1 PHE      -0.075100
      5 CA          -1.6650     0.7240    -0.2960 c3         1 PHE       0.131500
      6 CG           0.7590     0.4610     0.4140 ca         1 PHE      -0.090300
      7 CD1          1.1080    -0.8360     0.7540 ca         1 PHE      -0.122000
      8 CD2          1.6370     1.2910    -0.2630 ca         1 PHE      -0.122000
      9 C           -2.2260    -0.6860    -0.2250 c          1 PHE       0.646100
     10 CE1          2.3710    -1.3160     0.4060 ca         1 PHE      -0.126500
     11 CE2          2.9000     0.8110    -0.6110 ca         1 PHE      -0.126500
     12 CZ           3.2670    -0.4920    -0.2760 ca         1 PHE      -0.126000
     13 HB1         -0.9180     0.5380     1.7470 hc         1 PHE       0.062700
     14 HB2         -0.5160     2.0590     0.9860 hc         1 PHE       0.062700
     15 HA          -1.2650     0.8940    -1.3020 h1         1 PHE       0.097700
     16 HD1          0.4190    -1.4840     1.2870 ha         1 PHE       0.134000
     17 HD2          1.3590     2.3070    -0.5310 ha         1 PHE       0.134000
     18 H1          -2.4740     2.5970    -0.1980 hn         1 PHE       0.363800
     19 H2          -3.1590     1.5450     0.8370 hn         1 PHE       0.363800
     20 HE1          2.6570    -2.3300     0.6670 ha         1 PHE       0.133500
     21 HE2          3.5970     1.4520    -1.1430 ha         1 PHE       0.133500
     22 HZ           4.2500    -0.8670    -0.5470 ha         1 PHE       0.133000
     23 H           -1.9360    -2.4530    -0.9960 ho         1 PHE       0.444000
@<TRIPOS>BOND
     1     1     9 1   
     2     1    23 1   
     3     2     9 2   
     4     3     5 1   
     5     3    18 1   
     6     3    19 1   
     7     4     5 1   
     8     4     6 1   
     9     4    13 1   
    10     4    14 1   
    11     5     9 1   
    12     5    15 1   
    13     6     7 ar  
    14     6     8 ar  
    15     7    10 ar  
    16     7    16 1   
    17     8    11 ar  
    18     8    17 1   
    19    10    12 ar  
    20    10    20 1   
    21    11    12 ar  
    22    11    21 1   
    23    12    22 1   
@<TRIPOS>SUBSTRUCTURE
     1 PHE         1 TEMP              0 ****  ****    0 ROOT
