@<TRIPOS>MOLECULE
33613
   44    46     1     0     0
SMALL
bcc


@<TRIPOS>ATOM
      1 S            0.8130    -0.5300     1.0470 ss         1 UNL      -0.308200
      2 O            2.5410     1.9380    -2.1380 o          1 UNL      -0.514500
      3 O1           5.1160    -1.8060    -0.0670 oh         1 UNL      -0.610100
      4 OXT          4.3750    -0.4800     1.6330 o          1 UNL      -0.521000
      5 O2          -1.1800     2.4440     1.6020 o          1 UNL      -0.598100
      6 O3          -4.1590    -3.4890     0.0830 oh         1 UNL      -0.493100
      7 N            2.7860     0.7500    -0.1150 nj         1 UNL      -0.401800
      8 N1          -0.1500     1.9690    -0.4200 ns         1 UNL      -0.534900
      9 N2          -3.5720     2.8270     0.2760 n8         1 UNL      -0.927800
     10 C            1.8060     1.0060     0.9420 cy         1 UNL       0.096800
     11 C1           1.8290    -1.4420    -0.2180 c5         1 UNL       0.038100
     12 CA           3.1210    -0.6200    -0.4280 c5         1 UNL       0.026700
     13 C13          1.2350     2.1190     0.0480 cy         1 UNL       0.028700
     14 C2           2.2950     1.6810    -0.9810 c          1 UNL       0.654500
     15 C3           2.0780    -2.8720     0.2740 c3         1 UNL      -0.096100
     16 C4           1.0040    -1.4980    -1.5150 c3         1 UNL      -0.096100
     17 C5           4.2480    -0.9380     0.5070 c          1 UNL       0.646100
     18 C6          -1.2580     2.1470     0.4110 c          1 UNL       0.670100
     19 C14         -2.5840     1.9140    -0.3060 c3         1 UNL       0.163800
     20 C7          -3.0060     0.4640    -0.2010 ca         1 UNL      -0.146300
     21 C8          -3.1870    -0.2710    -1.3590 ca         1 UNL      -0.073500
     22 C9          -3.2020    -0.0930     1.0500 ca         1 UNL      -0.073500
     23 C10         -3.5780    -1.6070    -1.2630 ca         1 UNL      -0.187000
     24 C11         -3.5920    -1.4290     1.1470 ca         1 UNL      -0.187000
     25 C12         -3.7800    -2.1850    -0.0100 ca         1 UNL       0.138100
     26 H            2.2560     1.3400     1.8810 h2         1 UNL       0.128700
     27 HA           3.4770    -0.6650    -1.4650 h1         1 UNL       0.117700
     28 H16          1.4210     3.1320     0.4240 h1         1 UNL       0.132700
     29 H3           1.1390    -3.4300     0.3740 hc         1 UNL       0.056533
     30 H4           2.7070    -3.4210    -0.4350 hc         1 UNL       0.056533
     31 H5           2.5760    -2.8960     1.2500 hc         1 UNL       0.056533
     32 H6           1.5600    -2.0260    -2.2990 hc         1 UNL       0.056533
     33 H7           0.0600    -2.0370    -1.3700 hc         1 UNL       0.056533
     34 H8           0.7630    -0.5050    -1.9060 hc         1 UNL       0.056533
     35 H9          -0.3220     1.7160    -1.3900 hn         1 UNL       0.340500
     36 H17         -2.4630     2.1960    -1.3590 h1         1 UNL       0.062700
     37 H10          5.8620    -2.0270     0.5310 ho         1 UNL       0.448000
     38 H1          -4.4540     2.7370    -0.2290 hn         1 UNL       0.368800
     39 H2          -3.2690     3.7910     0.1370 hn         1 UNL       0.368800
     40 H11         -3.0310     0.1680    -2.3400 ha         1 UNL       0.142500
     41 H12         -3.0660     0.4820     1.9620 ha         1 UNL       0.142500
     42 H13         -3.7210    -2.1920    -2.1670 ha         1 UNL       0.146000
     43 H14         -3.7470    -1.8670     2.1290 ha         1 UNL       0.146000
     44 H15         -4.2530    -3.7240     1.0230 ho         1 UNL       0.422000
@<TRIPOS>BOND
     1     1    10 1   
     2     1    11 1   
     3     2    14 2   
     4     3    17 1   
     5     3    37 1   
     6     4    17 2   
     7     5    18 2   
     8     6    25 1   
     9     6    44 1   
    10     7    10 1   
    11     7    12 1   
    12     7    14 1   
    13     8    13 1   
    14     8    18 1   
    15     8    35 1   
    16     9    19 1   
    17     9    38 1   
    18     9    39 1   
    19    10    13 1   
    20    10    26 1   
    21    11    12 1   
    22    11    15 1   
    23    11    16 1   
    24    12    17 1   
    25    12    27 1   
    26    13    14 1   
    27    13    28 1   
    28    15    29 1   
    29    15    30 1   
    30    15    31 1   
    31    16    32 1   
    32    16    33 1   
    33    16    34 1   
    34    18    19 1   
    35    19    20 1   
    36    19    36 1   
    37    20    21 ar  
    38    20    22 ar  
    39    21    23 ar  
    40    21    40 1   
    41    22    24 ar  
    42    22    41 1   
    43    23    25 ar  
    44    23    42 1   
    45    24    25 ar  
    46    24    43 1   
@<TRIPOS>SUBSTRUCTURE
     1 UNL         1 TEMP              0 ****  ****    0 ROOT
