@<TRIPOS>MOLECULE
6036
   24    24     1     0     0
SMALL
bcc


@<TRIPOS>ATOM
      1 O            0.8170     0.9670    -0.2370 os         1 UNL      -0.468600
      2 O1           0.3540    -1.6650    -1.2460 oh         1 UNL      -0.567800
      3 O2          -2.0580    -1.9910     0.0970 oh         1 UNL      -0.576800
      4 O3          -2.7810     0.7900     0.4200 oh         1 UNL      -0.599800
      5 O4          -0.8270     2.5840    -0.5960 oh         1 UNL      -0.604800
      6 O5           3.4740     0.6140     0.3590 oh         1 UNL      -0.593800
      7 C            0.2830    -1.3700     0.1500 c6         1 UNL       0.123100
      8 C1          -1.1480    -0.9790     0.5200 c6         1 UNL       0.115100
      9 C2           1.2350    -0.2110     0.4650 c6         1 UNL       0.069100
     10 C3          -1.5390     0.3500    -0.1270 c6         1 UNL       0.075100
     11 C4          -0.4790     1.4190     0.1510 c6         1 UNL       0.310900
     12 C5           2.6690    -0.5070     0.0440 c3         1 UNL       0.140400
     13 H            0.5760    -2.2820     0.6820 h1         1 UNL       0.102700
     14 H1          -1.2390    -0.9040     1.6110 h1         1 UNL       0.054700
     15 H2           1.2230     0.0170     1.5390 h1         1 UNL       0.063700
     16 H3          -1.6970     0.2210    -1.2040 h1         1 UNL       0.072700
     17 H4          -0.4760     1.6990     1.2120 h2         1 UNL       0.055700
     18 H5           2.7540    -0.6760    -1.0340 h1         1 UNL       0.065700
     19 H6           3.0650    -1.3810     0.5700 h1         1 UNL       0.065700
     20 H7           0.2460    -0.8340    -1.7400 ho         1 UNL       0.407000
     21 H8          -2.9540    -1.6950     0.3330 ho         1 UNL       0.419000
     22 H9          -2.9930     1.6460     0.0080 ho         1 UNL       0.425000
     23 H10         -0.4250     3.3440    -0.1420 ho         1 UNL       0.434000
     24 H11          3.1070     1.3820    -0.1110 ho         1 UNL       0.410000
@<TRIPOS>BOND
     1     1     9 1   
     2     1    11 1   
     3     2     7 1   
     4     2    20 1   
     5     3     8 1   
     6     3    21 1   
     7     4    10 1   
     8     4    22 1   
     9     5    11 1   
    10     5    23 1   
    11     6    12 1   
    12     6    24 1   
    13     7     8 1   
    14     7     9 1   
    15     7    13 1   
    16     8    10 1   
    17     8    14 1   
    18     9    12 1   
    19     9    15 1   
    20    10    11 1   
    21    10    16 1   
    22    11    17 1   
    23    12    18 1   
    24    12    19 1   
@<TRIPOS>SUBSTRUCTURE
     1 UNL         1 TEMP              0 ****  ****    0 ROOT
