@<TRIPOS>MOLECULE
6029
   29    30     1     0     0
SMALL
bcc


@<TRIPOS>ATOM
      1 O4*         -1.3650    -0.5410     1.0220 os         1 U1       -0.406600
      2 O2*         -1.2430     2.3470    -1.1010 oh         1 U1       -0.595800
      3 O3*         -3.4090     1.5470     0.3500 oh         1 U1       -0.573800
      4 O5*         -2.3210    -3.0730     0.2880 oh         1 U1       -0.595800
      5 O2           1.5410     2.3480     0.7090 o          1 U1       -0.677500
      6 O4           4.5490    -0.9630    -0.4010 o          1 U1       -0.603500
      7 N1           0.7130     0.2100     0.2590 n          1 U1       -0.401000
      8 N3           3.0370     0.6980     0.1560 ns         1 U1       -0.581500
      9 C2*         -1.3670     0.9710    -0.8020 c5         1 U1        0.088100
     10 C3*         -2.7970     0.5760    -0.4990 c5         1 U1        0.136100
     11 C1*         -0.6540     0.5850     0.4820 c5         1 U1        0.277500
     12 C4*         -2.6100    -0.7010     0.3080 c5         1 U1        0.050100
     13 C5*         -2.5030    -1.9500    -0.5570 c3         1 U1        0.112400
     14 C2           1.7410     1.1720     0.3980 c          1 U1        0.810500
     15 C6           1.0250    -1.0980    -0.0940 cc         1 U1        0.057600
     16 C5           2.2650    -1.5350    -0.3220 cd         1 U1       -0.325200
     17 C4           3.3970    -0.5940    -0.1980 c          1 U1        0.714700
     18 H2*         -0.9990     0.3960    -1.6600 h1         1 U1        0.077700
     19 H3*         -3.4240     0.4670    -1.3870 h1         1 U1        0.094700
     20 H1*         -0.6900     1.3960     1.2190 h2         1 U1        0.105700
     21 H4*         -3.3920    -0.8360     1.0640 h1         1 U1        0.093700
     22 H5*1        -1.6680    -1.9070    -1.2610 h1         1 U1        0.058200
     23 H5*2        -3.4270    -2.0950    -1.1260 h1         1 U1        0.058200
     24 H7          -0.2950     2.5390    -1.2000 ho         1 U1        0.447000
     25 H8          -2.9270     1.5810     1.1930 ho         1 U1        0.428000
     26 H6           0.2130    -1.8040    -0.1870 h4         1 U1        0.205000
     27 H5*         -2.2680    -3.8570    -0.2850 ho         1 U1        0.411000
     28 H3           3.7920     1.3720     0.2500 hn         1 U1        0.353500
     29 H5           2.4710    -2.5630    -0.5940 ha         1 U1        0.183000
@<TRIPOS>BOND
     1     1    11 1   
     2     1    12 1   
     3     2     9 1   
     4     2    24 1   
     5     3    10 1   
     6     3    25 1   
     7     4    13 1   
     8     4    27 1   
     9     5    14 2   
    10     6    17 2   
    11     7    11 1   
    12     7    14 1   
    13     7    15 1   
    14     8    14 1   
    15     8    17 1   
    16     8    28 1   
    17     9    10 1   
    18     9    11 1   
    19     9    18 1   
    20    10    12 1   
    21    10    19 1   
    22    11    20 1   
    23    12    13 1   
    24    12    21 1   
    25    13    22 1   
    26    13    23 1   
    27    15    16 2   
    28    15    26 1   
    29    16    17 1   
    30    16    29 1   
@<TRIPOS>SUBSTRUCTURE
     1 U1          1 TEMP              0 ****  ****    0 ROOT
