@<TRIPOS>MOLECULE
6322
   26    25     1     0     0
SMALL
bcc


@<TRIPOS>ATOM
      1 O           -2.3030    -1.9540    -0.2040 oh         1 ARG      -0.599100
      2 OXT         -3.4440    -0.5310     1.1470 o          1 ARG      -0.565000
      3 N           -2.8920     1.6020    -0.3340 n8         1 ARG      -0.894800
      4 NE           1.9640    -0.2360     0.0500 n2         1 ARG      -0.713900
      5 NH1          3.9180    -1.4170    -0.3500 nv         1 ARG      -0.899800
      6 NH2          4.1370     0.7630     0.2810 nv         1 ARG      -0.899800
      7 CB          -0.7700     0.4930    -0.8700 c3         1 ARG      -0.073400
      8 CG          -0.1710     0.8750     0.4920 c3         1 ARG      -0.073400
      9 CA          -2.2990     0.3560    -0.8130 c3         1 ARG       0.136500
     10 CD           1.3450     1.0330     0.4370 c3         1 ARG       0.137800
     11 C           -2.7460    -0.7210     0.1590 c          1 ARG       0.590100
     12 CZ           3.2600    -0.2630     0.0060 c2         1 ARG       0.736100
     13 HB1         -0.3370    -0.4540    -1.2150 hc         1 ARG       0.067700
     14 HB2         -0.4990     1.2540    -1.6130 hc         1 ARG       0.067700
     15 HG1         -0.5950     1.8210     0.8470 hc         1 ARG       0.050700
     16 HG2         -0.4190     0.1090     1.2370 hc         1 ARG       0.050700
     17 HA          -2.7020     0.1200    -1.8040 h1         1 ARG       0.089700
     18 HD1          1.6010     1.8200    -0.2820 h1         1 ARG       0.027200
     19 HD2          1.6950     1.3400     1.4300 h1         1 ARG       0.027200
     20 H1          -3.9080     1.5420    -0.3880 hn         1 ARG       0.362800
     21 H2          -2.6210     2.3690    -0.9490 hn         1 ARG       0.362800
     22 H           -2.6030    -2.6480     0.4210 ho         1 ARG       0.443000
     23 HH11         3.4060    -2.2610    -0.5820 hn         1 ARG       0.392550
     24 HH12         4.9310    -1.4590    -0.3900 hn         1 ARG       0.392550
     25 HH21         5.1390     0.6250     0.2130 hn         1 ARG       0.392550
     26 HH22         3.8210     1.6860     0.5560 hn         1 ARG       0.392550
@<TRIPOS>BOND
     1     1    11 1   
     2     1    22 1   
     3     2    11 2   
     4     3     9 1   
     5     3    20 1   
     6     3    21 1   
     7     4    10 1   
     8     4    12 2   
     9     5    12 1   
    10     5    23 1   
    11     5    24 1   
    12     6    12 1   
    13     6    25 1   
    14     6    26 1   
    15     7     8 1   
    16     7     9 1   
    17     7    13 1   
    18     7    14 1   
    19     8    10 1   
    20     8    15 1   
    21     8    16 1   
    22     9    11 1   
    23     9    17 1   
    24    10    18 1   
    25    10    19 1   
@<TRIPOS>SUBSTRUCTURE
     1 ARG         1 TEMP              0 ****  ****    0 ROOT
