@<TRIPOS>MOLECULE
5280794
   78    81     1     0     0
SMALL
bcc


@<TRIPOS>ATOM
      1 O            8.4150    -0.1500     0.4020 oh         1 UNL      -0.596800
      2 C           -0.2770     0.5410    -0.2400 c5         1 UNL      -0.045000
      3 C1           0.4460    -0.7300     0.2480 c5         1 UNL      -0.064700
      4 C2           1.8960    -0.8270    -0.2390 c6         1 UNL      -0.046700
      5 C3           2.6890     0.4240     0.2390 c6         1 UNL      -0.048700
      6 C4          -1.6770     0.2790     0.3660 c5         1 UNL      -0.051700
      7 C5           0.4640     1.7490     0.3510 c6         1 UNL      -0.065400
      8 C6           4.1850     0.3910    -0.2720 c6         1 UNL      -0.000800
      9 C7          -0.5230    -1.8550    -0.1010 c5         1 UNL      -0.074400
     10 C8           1.9470     1.7560    -0.0600 c6         1 UNL      -0.075400
     11 C9          -1.9150    -1.2260     0.0990 c5         1 UNL      -0.078400
     12 C10          2.5610    -2.1070     0.2870 c6         1 UNL      -0.043200
     13 C11         -0.3510     0.6720    -1.7820 c3         1 UNL      -0.082100
     14 C12          4.7930    -1.0070    -0.0880 c2         1 UNL      -0.109400
     15 C13         -2.8130     1.1570    -0.1380 c3         1 UNL      -0.026500
     16 C14          5.0080     1.4180     0.5610 c6         1 UNL      -0.067400
     17 C15          4.0520    -2.0980     0.1730 c2         1 UNL      -0.163200
     18 C16          4.2760     0.7570    -1.7730 c3         1 UNL      -0.082100
     19 C17          6.2950    -1.1270    -0.2050 c6         1 UNL      -0.072200
     20 C18          6.5210     1.3120     0.3750 c6         1 UNL      -0.110400
     21 C19          7.0160    -0.1000     0.6650 c6         1 UNL       0.142100
     22 C20         -2.5260     2.6330     0.1470 c3         1 UNL      -0.087100
     23 C21         -4.1170     0.7500     0.5050 c2         1 UNL      -0.169200
     24 C22         -5.1830     0.3110    -0.1810 c2         1 UNL      -0.161200
     25 C23         -6.4930    -0.0910     0.4650 c3         1 UNL      -0.030500
     26 C24         -6.8480    -1.5890     0.2290 c3         1 UNL      -0.058700
     27 C25         -7.5880     0.8920    -0.0060 c3         1 UNL      -0.073400
     28 C26         -5.8230    -2.5750     0.8000 c3         1 UNL      -0.091600
     29 C27         -7.0750    -1.8890    -1.2600 c3         1 UNL      -0.091600
     30 C28         -7.3550     2.3300     0.4340 c3         1 UNL      -0.093100
     31 H            0.4890    -0.6980     1.3500 hc         1 UNL       0.045700
     32 H1           1.9090    -0.8730    -1.3330 hc         1 UNL       0.058700
     33 H2           2.7250     0.3530     1.3380 hc         1 UNL       0.048700
     34 H3          -1.6050     0.4010     1.4590 hc         1 UNL       0.046700
     35 H4           0.4030     1.7340     1.4470 hc         1 UNL       0.041200
     36 H5           0.0440     2.7020     0.0270 hc         1 UNL       0.041200
     37 H6          -0.3850    -2.7290     0.5430 hc         1 UNL       0.041700
     38 H7          -0.3990    -2.1840    -1.1390 hc         1 UNL       0.041700
     39 H8           2.0060     1.9980    -1.1250 hc         1 UNL       0.040700
     40 H9           2.4400     2.5790     0.4690 hc         1 UNL       0.040700
     41 H10         -2.5250    -1.4010    -0.7950 hc         1 UNL       0.043700
     42 H11         -2.4300    -1.6920     0.9460 hc         1 UNL       0.043700
     43 H12          2.1720    -2.9680    -0.2700 hc         1 UNL       0.049700
     44 H13          2.3060    -2.2710     1.3420 hc         1 UNL       0.049700
     45 H14          0.6340     0.6360    -2.2550 hc         1 UNL       0.035700
     46 H15         -0.9460    -0.1250    -2.2400 hc         1 UNL       0.035700
     47 H16         -0.8000     1.6250    -2.0800 hc         1 UNL       0.035700
     48 H17         -2.9220     1.0450    -1.2240 hc         1 UNL       0.053700
     49 H18          4.7910     1.2820     1.6300 hc         1 UNL       0.045200
     50 H19          4.7040     2.4420     0.3130 hc         1 UNL       0.045200
     51 H20          4.5420    -3.0580     0.3150 ha         1 UNL       0.121000
     52 H21          5.2900     0.6420    -2.1690 hc         1 UNL       0.036033
     53 H22          3.6240     0.1270    -2.3860 hc         1 UNL       0.036033
     54 H23          3.9990     1.8010    -1.9510 hc         1 UNL       0.036033
     55 H24          6.6450    -2.1300     0.0730 hc         1 UNL       0.051700
     56 H25          6.5920    -1.0070    -1.2550 hc         1 UNL       0.051700
     57 H26          6.8050     1.6160    -0.6400 hc         1 UNL       0.047200
     58 H27          7.0270     2.0210     1.0420 hc         1 UNL       0.047200
     59 H28          6.8700    -0.3370     1.7250 h1         1 UNL       0.079700
     60 H29         -1.8620     3.0660    -0.6040 hc         1 UNL       0.035367
     61 H30         -3.4500     3.2230     0.0900 hc         1 UNL       0.035367
     62 H31         -2.1090     2.7900     1.1470 hc         1 UNL       0.035367
     63 H32         -4.1760     0.8230     1.5890 ha         1 UNL       0.121000
     64 H33         -5.1220     0.2520    -1.2650 ha         1 UNL       0.121000
     65 H34          8.5520     0.0500    -0.5400 ho         1 UNL       0.395000
     66 H35         -6.4010     0.0320     1.5540 hc         1 UNL       0.050700
     67 H36         -7.7970    -1.7810     0.7470 hc         1 UNL       0.044700
     68 H37         -7.6820     0.8800    -1.0980 hc         1 UNL       0.039200
     69 H38         -8.5540     0.5630     0.3970 hc         1 UNL       0.039200
     70 H39         -5.6410    -2.3720     1.8600 hc         1 UNL       0.034367
     71 H40         -4.8670    -2.5150     0.2710 hc         1 UNL       0.034367
     72 H41         -6.1880    -3.6040     0.7140 hc         1 UNL       0.034367
     73 H42         -6.1680    -1.7400    -1.8550 hc         1 UNL       0.034367
     74 H43         -7.8730    -1.2730    -1.6820 hc         1 UNL       0.034367
     75 H44         -7.3800    -2.9330    -1.3900 hc         1 UNL       0.034367
     76 H45         -7.2340     2.3950     1.5200 hc         1 UNL       0.034033
     77 H46         -6.4690     2.7620    -0.0400 hc         1 UNL       0.034033
     78 H47         -8.2130     2.9510     0.1530 hc         1 UNL       0.034033
@<TRIPOS>BOND
     1     1    21 1   
     2     1    65 1   
     3     2     3 1   
     4     2     6 1   
     5     2     7 1   
     6     2    13 1   
     7     3     4 1   
     8     3     9 1   
     9     3    31 1   
    10     4     5 1   
    11     4    12 1   
    12     4    32 1   
    13     5     8 1   
    14     5    10 1   
    15     5    33 1   
    16     6    11 1   
    17     6    15 1   
    18     6    34 1   
    19     7    10 1   
    20     7    35 1   
    21     7    36 1   
    22     8    14 1   
    23     8    16 1   
    24     8    18 1   
    25     9    11 1   
    26     9    37 1   
    27     9    38 1   
    28    10    39 1   
    29    10    40 1   
    30    11    41 1   
    31    11    42 1   
    32    12    17 1   
    33    12    43 1   
    34    12    44 1   
    35    13    45 1   
    36    13    46 1   
    37    13    47 1   
    38    14    17 2   
    39    14    19 1   
    40    15    22 1   
    41    15    23 1   
    42    15    48 1   
    43    16    20 1   
    44    16    49 1   
    45    16    50 1   
    46    17    51 1   
    47    18    52 1   
    48    18    53 1   
    49    18    54 1   
    50    19    21 1   
    51    19    55 1   
    52    19    56 1   
    53    20    21 1   
    54    20    57 1   
    55    20    58 1   
    56    21    59 1   
    57    22    60 1   
    58    22    61 1   
    59    22    62 1   
    60    23    24 2   
    61    23    63 1   
    62    24    25 1   
    63    24    64 1   
    64    25    26 1   
    65    25    27 1   
    66    25    66 1   
    67    26    28 1   
    68    26    29 1   
    69    26    67 1   
    70    27    30 1   
    71    27    68 1   
    72    27    69 1   
    73    28    70 1   
    74    28    71 1   
    75    28    72 1   
    76    29    73 1   
    77    29    74 1   
    78    29    75 1   
    79    30    76 1   
    80    30    77 1   
    81    30    78 1   
@<TRIPOS>SUBSTRUCTURE
     1 UNL         1 TEMP              0 ****  ****    0 ROOT
