@<TRIPOS>MOLECULE
6305
   27    28     1     0     0
SMALL
bcc


@<TRIPOS>ATOM
      1 O            1.4760    -0.8150     1.7280 oh         1 TRP      -0.616100
      2 OXT          2.5600    -1.9470     0.0880 o          1 TRP      -0.547000
      3 NE1         -1.6470     2.0040     0.5480 na         1 TRP      -0.192400
      4 N            3.8760     0.3650    -0.5830 n8         1 TRP      -0.911800
      5 CG           0.1470     1.1320    -0.4240 cc         1 TRP      -0.153400
      6 CB           1.5060     0.9850    -0.9830 c3         1 TRP      -0.009200
      7 CD2         -0.8670     0.1350    -0.3860 ca         1 TRP      -0.089800
      8 CA           2.5600     0.4880     0.0400 c3         1 TRP       0.140500
      9 CE2         -1.9820     0.7080     0.2290 ca         1 TRP      -0.047200
     10 CD1         -0.3620     2.2700     0.1580 cd         1 TRP      -0.104100
     11 CE3         -0.9430    -1.2040    -0.8170 ca         1 TRP      -0.082000
     12 CZ2         -3.1750     0.0050     0.4350 ca         1 TRP      -0.149000
     13 C            2.2080    -0.8850     0.5860 c          1 TRP       0.644100
     14 CZ3         -2.1300    -1.9190    -0.6180 ca         1 TRP      -0.158000
     15 CH2         -3.2270    -1.3220    -0.0010 ca         1 TRP      -0.111000
     16 HB1          1.4720     0.2940    -1.8370 hc         1 TRP       0.073700
     17 HB2          1.8350     1.9500    -1.3930 hc         1 TRP       0.073700
     18 HA           2.6390     1.1900     0.8790 h1         1 TRP       0.053700
     19 HD1          0.0720     3.2450     0.3300 h4         1 TRP       0.162000
     20 HE1         -2.2620     2.6640     1.0050 hn         1 TRP       0.298700
     21 HE3         -0.1000    -1.6860    -1.3040 ha         1 TRP       0.158000
     22 HZ2         -4.0300     0.4700     0.9140 ha         1 TRP       0.131000
     23 HZ3         -2.1950    -2.9520    -0.9490 ha         1 TRP       0.131000
     24 H1           4.5720     0.1350     0.1260 hn         1 TRP       0.364800
     25 H2           4.1550     1.2660    -0.9720 hn         1 TRP       0.364800
     26 HH2         -4.1390    -1.8950     0.1430 ha         1 TRP       0.129000
     27 H            1.2620    -1.7060     2.0800 ho         1 TRP       0.445000
@<TRIPOS>BOND
     1     1    13 1   
     2     1    27 1   
     3     2    13 2   
     4     3     9 1   
     5     3    10 1   
     6     3    20 1   
     7     4     8 1   
     8     4    24 1   
     9     4    25 1   
    10     5     6 1   
    11     5     7 1   
    12     5    10 2   
    13     6     8 1   
    14     6    16 1   
    15     6    17 1   
    16     7     9 ar  
    17     7    11 ar  
    18     8    13 1   
    19     8    18 1   
    20     9    12 ar  
    21    10    19 1   
    22    11    14 ar  
    23    11    21 1   
    24    12    15 ar  
    25    12    22 1   
    26    14    15 ar  
    27    14    23 1   
    28    15    26 1   
@<TRIPOS>SUBSTRUCTURE
     1 TRP         1 TEMP              0 ****  ****    0 ROOT
