@<TRIPOS>MOLECULE
generated by VMD
   21   21    1    0    0
SMALL
NO_CHARGES
****
Energy = 0

@<TRIPOS>ATOM
      1  H8         3.7600   -2.4300   -0.0000   H8    0  ZUVU        0.000000
      2  N3         3.0900   -1.6700    0.0300   N3    0  ZUVU        0.000000
      3  H7         2.1000   -1.8800   -0.0000   H7    0  ZUVU        0.000000
      4  C8         3.5300   -0.4100    0.0100   C8    0  ZUVU        0.000000
      5  S1         5.1700    0.0300    0.0000   S1    0  ZUVU        0.000000
      6  N2         2.5700    0.5600    0.0000   N2    0  ZUVU        0.000000
      7  H6         2.8800    1.5300   -0.0200   H6    0  ZUVU        0.000000
      8  N1         1.2400    0.2500    0.0100   N1    0  ZUVU        0.000000
      9  C7         0.4100    1.2300   -0.0100   C7    0  ZUVU        0.000000
     10  H5         0.7600    2.2700   -0.0300   H5    0  ZUVU        0.000000
     11  C4        -1.0400    1.0300   -0.0000   C4    0  ZUVU        0.000000
     12  C3        -1.8700    2.1600    0.0000   C3    0  ZUVU        0.000000
     13  H3        -1.4400    3.1500    0.0100   H3    0  ZUVU        0.000000
     14  C2        -3.2600    2.0100    0.0100   C2    0  ZUVU        0.000000
     15  H2        -3.9000    2.8900    0.0200   H2    0  ZUVU        0.000000
     16  C1        -3.8400    0.7400    0.0000   C1    0  ZUVU        0.000000
     17  H1        -4.9100    0.6100    0.0100   H1    0  ZUVU        0.000000
     18  C6        -2.9900   -0.3800   -0.0000   C6    0  ZUVU        0.000000
     19  Cl1       -3.7100   -1.9900   -0.0100  Cl1    0  ZUVU        0.000000
     20  C5        -1.6100   -0.2600   -0.0100   C5    0  ZUVU        0.000000
     21  H4        -0.9800   -1.1300   -0.0200   H4    0  ZUVU        0.000000
@<TRIPOS>BOND
    1     1     2  1
    2     2     3  1
    3     2     4  1
    4     4     6  1
    5     4     5  1
    6     6     7  1
    7     6     8  1
    8     8     9  1
    9     9    10  1
   10     9    11  1
   11    11    12  1
   12    11    20  1
   13    12    13  1
   14    12    14  1
   15    14    16  1
   16    14    15  1
   17    16    17  1
   18    16    18  1
   19    18    19  1
   20    18    20  1
   21    20    21  1

@<TRIPOS>SUBSTRUCTURE
1 ****        1 TEMP                        0 ****  **** 0 ROOT
