# generated by VMD
# Created by GaussView 6.0.16
#

#
#

@<TRIPOS>MOLECULE
Molecule Name
15 15
SMALL
NO_CHARGES


@<TRIPOS>ATOM
1 H1     0.0000     0.0000     0.0000 H
2 O2     0.0000     0.0000     0.9823 O
3 C3     1.3003     0.0000     1.3477 C
4 C4     2.1002     1.1930     1.3730 C
5 N5     1.6039     2.4051     1.0290 N
6 O6     0.5069     2.5749     0.6829 O
7 O7     2.3092     3.4608     1.0512 O
8 C8     1.8494    -1.2376     1.7227 C
9 H9     1.2763    -2.0827     1.6940 H
10 C10     3.1948    -1.3331     2.1262 C
11 H11     3.5898    -2.2374     2.3928 H
12 C12     3.9866    -0.1784     2.1597 C
13 H13     4.9686    -0.2406     2.4549 H
14 C14     3.4448     1.0591     1.7915 C
15 H15     4.0626     1.8760     1.8305 H
@<TRIPOS>BOND
1 1 2 1
2 2 3 1
3 3 4 Ar
4 3 8 Ar
5 4 5 Ar
6 4 14 Ar
7 5 6 2
8 5 7 Ar
9 8 9 1
10 8 10 Ar
11 10 11 1
12 10 12 Ar
13 12 13 1
14 12 14 Ar
15 14 15 1
