@<TRIPOS>MOLECULE
generated by VMD
   15   15    1    0    0
SMALL
NO_CHARGES
****
Energy = 0

@<TRIPOS>ATOM
      1  C         -0.9500   -0.1500   -0.6600    C    1  G280        0.000000
      2  C         -2.1000   -0.8200   -1.1100    C    1  G280        0.000000
      3  C         -2.0000   -2.0800   -1.7300    C    1  G280        0.000000
      4  C         -0.7400   -2.6700   -1.8900    C    1  G280        0.000000
      5  C          0.4100   -2.0100   -1.4400    C    1  G280        0.000000
      6  C          0.3500   -0.7400   -0.8200    C    1  G280        0.000000
      7  O         -1.1400    1.0500   -0.0700    O    1  G280        0.000000
      8  N          1.4800   -0.1300   -0.3900    N    1  G280        0.000000
      9  O          2.6300   -0.6500   -0.5300    O    1  G280        0.000000
     10  O          1.4900    0.9100    0.1300    O    1  G280        0.000000
     11  H         -3.0200   -0.3900   -1.0000    H    1  G280        0.000000
     12  H         -2.8400   -2.5600   -2.0600    H    1  G280        0.000000
     13  H         -0.6600   -3.5900   -2.3400    H    1  G280        0.000000
     14  H         -0.9400    1.7200   -0.7600    H    1  G280        0.000000
     15  H          1.3100   -2.4800   -1.5800    H    1  G280        0.000000
@<TRIPOS>BOND
    1     1     6  1
    2     1     7  1
    3     1     2  1
    4     2    11  1
    5     2     3  1
    6     3    12  1
    7     3     4  1
    8     4     5  1
    9     4    13  1
   10     5    15  1
   11     5     6  1
   12     6     8  1
   13     7    14  1
   14     8     9  1
   15     8    10  1

@<TRIPOS>SUBSTRUCTURE
1 ****        1 TEMP                        0 ****  **** 0 ROOT
