# Title
# Created by GaussView 6.0.16
#

#
#

@<TRIPOS>MOLECULE
Molecule Name
15 15
SMALL
NO_CHARGES


@<TRIPOS>ATOM
1 O1    -8.4429    -1.4972    -4.2035 O
2 N2    -8.7586    -2.0073    -3.1211 N
3 O3    -9.8530    -1.7420    -2.6078 O
4 C4    -7.8337    -2.9285    -2.4451 C
5 C5    -8.1912    -3.5062    -1.2194 C
6 H6    -9.1374    -3.2768    -0.7756 H
7 C7    -7.3095    -4.3844    -0.5750 C
8 H8    -7.5825    -4.8254     0.3609 H
9 C9    -6.0702    -4.6848    -1.1562 C
10 H10    -5.3970    -5.3553    -0.6642 H
11 C11    -5.7127    -4.1071    -2.3819 C
12 O12    -4.4482    -4.4137    -2.9751 O
13 H13    -4.1833    -5.3013    -2.7230 H
14 C14    -6.5945    -3.2290    -3.0264 C
15 H15    -6.3215    -2.7879    -3.9622 H
@<TRIPOS>BOND
1 1 2 Ar
2 2 3 Ar
3 2 4 1
4 4 5 Ar
5 4 14 Ar
6 5 6 1
7 5 7 Ar
8 7 8 1
9 7 9 Ar
10 9 10 1
11 9 11 Ar
12 11 12 1
13 11 14 Ar
14 12 13 1
15 14 15 1
