# Title
# Created by GaussView 6.0.16
#

#
#

@<TRIPOS>MOLECULE
Molecule Name
15 15
SMALL
NO_CHARGES


@<TRIPOS>ATOM
1 O1    -1.5566     3.1251    -0.5892 O
2 N2    -2.3829     2.8266     0.2235 N
3 O3    -2.5764     3.5545     1.2055 O
4 C4    -3.1681     1.5953     0.0553 C
5 C5    -4.1358     1.2458     1.0068 C
6 H6    -4.3030     1.8752     1.8558 H
7 C7    -4.8843     0.0720     0.8465 C
8 H8    -5.6231    -0.1948     1.5730 H
9 C9    -4.6653    -0.7523    -0.2655 C
10 O10    -5.4291    -1.9501    -0.4291 O
11 H11    -5.6712    -2.2956     0.4332 H
12 C12    -3.6977    -0.4028    -1.2171 C
13 H13    -3.5304    -1.0322    -2.0661 H
14 C14    -2.9491     0.7710    -1.0567 C
15 H15    -2.2103     1.0379    -1.7832 H
@<TRIPOS>BOND
1 1 2 2
2 2 3 Ar
3 2 4 1
4 4 5 Ar
5 4 14 Ar
6 5 6 1
7 5 7 Ar
8 7 8 1
9 7 9 Ar
10 9 10 1
11 9 12 Ar
12 10 11 1
13 12 13 1
14 12 14 Ar
15 14 15 1
