@<TRIPOS>MOLECULE
Title
62 61 1
SMALL
USER_CHARGES
@<TRIPOS>ATOM
1	H1    -8.1500    -3.4000     1.9000	H	1	noname	0.2100
2	O1    -7.3000    -3.1300     2.2500	O.3	1	noname	-0.3949
3	C1    -7.4900    -1.8600     2.8600	C.3	1	noname	0.0561
4	H2    -8.2300    -1.9600     3.7100	H	1	noname	0.0577
5	H3    -7.8800    -1.1200     2.1200	H	1	noname	0.0577
6	C2    -6.1400    -1.4200     3.4300	C.3	1	noname	0.0259
7	H4    -5.7800    -2.2200     4.1400	H	1	noname	0.0456
8	H5    -6.3000    -0.4600     4.0000	H	1	noname	0.0456
9	N1    -5.1200    -1.2100     2.4400	N.2	1	noname	-0.1767
10	H6    -4.9000    -1.9900     1.8600	H	1	noname	0.1310
11	C3    -4.6300     0.0400     2.1200	C.2	1	noname	0.1179
12	O2    -4.9900     1.0500     2.7500	O.2	1	noname	-0.2791
13	C4    -3.5900     0.1100     1.0200	C.3	1	noname	0.0215
14	H7    -3.7400    -0.7000     0.2600	H	1	noname	0.0361
15	H8    -2.5800    -0.0500     1.4900	H	1	noname	0.0361
16	C5    -3.6300     1.4600     0.3300	C.3	1	noname	-0.0415
17	H9    -3.5300     2.2700     1.1000	H	1	noname	0.0274
18	H10    -4.6200     1.6000    -0.1600	H	1	noname	0.0274
19	C6    -2.5200     1.5700    -0.7000	C.3	1	noname	-0.0346
20	H11    -2.6100     0.7300    -1.4400	H	1	noname	0.0310
21	H12    -1.5200     1.4500    -0.1900	H	1	noname	0.0310
22	C7    -2.5600     2.8700    -1.4100	C.2	1	noname	-0.0869
23	H13    -3.3900     3.5400    -1.1500	H	1	noname	0.0572
24	C8    -1.6500     3.2400    -2.3200	C.2	1	noname	-0.0859
25	H14    -1.7400     4.2200    -2.8200	H	1	noname	0.0575
26	C9    -0.4800     2.4200    -2.7100	C.3	1	noname	-0.0169
27	H15    -0.8100     1.3400    -2.8400	H	1	noname	0.0353
28	H16     0.2600     2.4200    -1.8700	H	1	noname	0.0353
29	C10     0.1700     2.8700    -3.9600	C.2	1	noname	-0.0844
30	H17    -0.3700     3.6300    -4.5400	H	1	noname	0.0575
31	C11     1.3500     2.4000    -4.4000	C.2	1	noname	-0.0844
32	H18     1.7800     2.7800    -5.3400	H	1	noname	0.0575
33	C12     2.1600     1.3900    -3.6800	C.3	1	noname	-0.0169
34	H19     1.4800     0.6200    -3.2100	H	1	noname	0.0353
35	H20     2.6900     1.9000    -2.8200	H	1	noname	0.0353
36	C13     3.1500     0.7100    -4.5400	C.2	1	noname	-0.0844
37	H21     3.0400     0.8700    -5.6300	H	1	noname	0.0575
38	C14     4.1200    -0.0900    -4.0800	C.2	1	noname	-0.0844
39	H22     4.8100    -0.5800    -4.7800	H	1	noname	0.0575
40	C15     4.3500    -0.3600    -2.6400	C.3	1	noname	-0.0169
41	H23     3.3600    -0.4500    -2.1000	H	1	noname	0.0353
42	H24     4.8800     0.5200    -2.1900	H	1	noname	0.0353
43	C16     5.1400    -1.6000    -2.4000	C.2	1	noname	-0.0859
44	H25     5.2000    -2.3000    -3.2400	H	1	noname	0.0575
45	C17     5.7400    -1.8800    -1.2400	C.2	1	noname	-0.0870
46	H26     6.3000    -2.8200    -1.1200	H	1	noname	0.0572
47	C18     5.7200    -0.9800    -0.0500	C.3	1	noname	-0.0350
48	H27     4.6600    -0.6500     0.1500	H	1	noname	0.0309
49	H28     6.3000    -0.0500    -0.2900	H	1	noname	0.0309
50	C19     6.2900    -1.6500     1.1800	C.3	1	noname	-0.0498
51	H29     7.3400    -2.0000     0.9700	H	1	noname	0.0270
52	H30     5.6800    -2.5600     1.4300	H	1	noname	0.0270
53	C20     6.3000    -0.7000     2.3600	C.3	1	noname	-0.0532
54	H31     5.2600    -0.3400     2.5600	H	1	noname	0.0266
55	H32     6.9200     0.2100     2.1000	H	1	noname	0.0266
56	C21     6.8600    -1.3600     3.5900	C.3	1	noname	-0.0561
57	H33     7.9100    -1.7100     3.3900	H	1	noname	0.0264
58	H34     6.2600    -2.2700     3.8400	H	1	noname	0.0264
59	C22     6.8700    -0.4200     4.7700	C.3	1	noname	-0.0654
60	H35     7.2900    -0.9300     5.6700	H	1	noname	0.0230
61	H36     7.4800     0.4900     4.5500	H	1	noname	0.0230
62	H37     5.8300    -0.0900     5.0100	H	1	noname	0.0230
@<TRIPOS>BOND
1	1	2	1
2	2	3	1
3	3	5	1
4	3	4	1
5	3	6	1
6	6	7	1
7	6	8	1
8	6	9	1
9	9	10	1
10	9	11	ar
11	11	12	2
12	11	13	1
13	13	14	1
14	13	15	1
15	13	16	1
16	16	17	1
17	16	18	1
18	16	19	1
19	19	20	1
20	19	21	1
21	19	22	1
22	22	23	1
23	22	24	2
24	24	25	1
25	24	26	1
26	26	27	1
27	26	29	1
28	26	28	1
29	29	30	1
30	29	31	2
31	31	32	1
32	31	33	1
33	33	34	1
34	33	35	1
35	33	36	1
36	36	37	1
37	36	38	2
38	38	39	1
39	38	40	1
40	40	41	1
41	40	43	1
42	40	42	1
43	43	44	1
44	43	45	2
45	45	46	1
46	45	47	1
47	47	48	1
48	47	50	1
49	47	49	1
50	50	52	1
51	50	53	1
52	50	51	1
53	53	54	1
54	53	56	1
55	53	55	1
56	56	58	1
57	56	57	1
58	56	59	1
59	59	62	1
60	59	60	1
61	59	61	1
@<TRIPOS>SUBSTRUCTURE
1	noname	1
