@<TRIPOS>MOLECULE
generated by VMD
   33   34    1    0    0
SMALL
NO_CHARGES
****
Energy = 0

@<TRIPOS>ATOM
      1  H16       -5.3300    1.5800   -0.4300  H16    0  9WTE        0.000000
      2  O2        -4.6700    1.8200    0.2500   O2    0  9WTE        0.000000
      3  C11       -3.5800    1.0100    0.1200  C11    0  9WTE        0.000000
      4  C10       -2.5200    1.2000    1.0300  C10    0  9WTE        0.000000
      5  H6        -2.6100    1.9800    1.7800   H6    0  9WTE        0.000000
      6  C9        -1.3900    0.4000    0.9500   C9    0  9WTE        0.000000
      7  H5        -0.5800    0.5700    1.6500   H5    0  9WTE        0.000000
      8  C8        -1.2600   -0.6100   -0.0200   C8    0  9WTE        0.000000
      9  C13       -2.3300   -0.7900   -0.9100  C13    0  9WTE        0.000000
     10  H8        -2.2800   -1.5600   -1.6700   H8    0  9WTE        0.000000
     11  C12       -3.4700    0.0100   -0.8500  C12    0  9WTE        0.000000
     12  H7        -4.2900   -0.1600   -1.5500   H7    0  9WTE        0.000000
     13  C7         0.0000   -1.5000   -0.0200   C7    0  9WTE        0.000000
     14  C14       -0.0800   -2.4300    1.2200  C14    0  9WTE        0.000000
     15  H9        -0.0800   -1.8600    2.1500   H9    0  9WTE        0.000000
     16  H10        0.7600   -3.1300    1.2400  H10    0  9WTE        0.000000
     17  H11       -1.0000   -3.0100    1.1800  H11    0  9WTE        0.000000
     18  C15        0.0800   -2.4100   -1.2700  C15    0  9WTE        0.000000
     19  H12        0.0600   -1.8300   -2.2000  H12    0  9WTE        0.000000
     20  H13       -0.7600   -3.1200   -1.3000  H13    0  9WTE        0.000000
     21  H14        1.0100   -2.9900   -1.2500  H14    0  9WTE        0.000000
     22  C4         1.2600   -0.6200   -0.0100   C4    0  9WTE        0.000000
     23  C3         2.2900   -0.7600    0.9400   C3    0  9WTE        0.000000
     24  H2         2.2200   -1.5000    1.7200   H2    0  9WTE        0.000000
     25  C2         3.4300    0.0500    0.9100   C2    0  9WTE        0.000000
     26  H1         4.2200   -0.0700    1.6500   H1    0  9WTE        0.000000
     27  C1         3.5800    1.0200   -0.0900   C1    0  9WTE        0.000000
     28  O1         4.7200    1.7800   -0.0700   O1    0  9WTE        0.000000
     29  H15        4.6800    2.4200   -0.8100  H15    0  9WTE        0.000000
     30  C6         2.5700    1.1800   -1.0400   C6    0  9WTE        0.000000
     31  H4         2.6700    1.9300   -1.8200   H4    0  9WTE        0.000000
     32  C5         1.4400    0.3700   -1.0000   C5    0  9WTE        0.000000
     33  H3         0.6600    0.5200   -1.7400   H3    0  9WTE        0.000000
@<TRIPOS>BOND
    1     1     2  1
    2     2     3  1
    3     3    11  1
    4     3     4  1
    5     4     5  1
    6     4     6  1
    7     6     8  1
    8     6     7  1
    9     8    13  1
   10     8     9  1
   11     9    11  1
   12     9    10  1
   13    11    12  1
   14    13    14  1
   15    13    22  1
   16    13    18  1
   17    14    17  1
   18    14    16  1
   19    14    15  1
   20    18    21  1
   21    18    19  1
   22    18    20  1
   23    22    32  1
   24    22    23  1
   25    23    25  1
   26    23    24  1
   27    25    27  1
   28    25    26  1
   29    27    28  1
   30    27    30  1
   31    28    29  1
   32    30    32  1
   33    30    31  1
   34    32    33  1

@<TRIPOS>SUBSTRUCTURE
1 ****        1 TEMP                        0 ****  **** 0 ROOT
