@<TRIPOS>MOLECULE
Title
53 54 1
SMALL
USER_CHARGES
@<TRIPOS>ATOM
1	H1     8.4200     0.2300    -0.3900	H	1	noname	0.0230
2	C1     8.0700    -0.6900     0.1200	C.3	1	noname	-0.0654
3	H2     8.6800    -1.5500    -0.2500	H	1	noname	0.0230
4	H3     8.2700    -0.5800     1.2200	H	1	noname	0.0230
5	C2     6.6100    -0.9300    -0.1300	C.3	1	noname	-0.0561
6	H4     6.2800    -1.8800     0.3700	H	1	noname	0.0264
7	H5     6.4400    -1.0700    -1.2400	H	1	noname	0.0264
8	C3     5.7600     0.2200     0.3700	C.3	1	noname	-0.0532
9	H6     5.9300     0.3600     1.4700	H	1	noname	0.0266
10	H7     6.0800     1.1700    -0.1400	H	1	noname	0.0266
11	C4     4.2900    -0.0200     0.1000	C.3	1	noname	-0.0492
12	H8     3.9700    -0.9700     0.6100	H	1	noname	0.0270
13	H9     4.1200    -0.1600    -1.0000	H	1	noname	0.0270
14	C5     3.4500     1.1300     0.6100	C.3	1	noname	0.0092
15	H10     3.6100     1.2600     1.7100	H	1	noname	0.0316
16	H11     3.7900     2.0800     0.1100	H	1	noname	0.0316
17	C6     2.0000     0.9200     0.3300	C.2	1	noname	-0.0392
18	C7     1.1200     0.5800     1.3500	C.2	1	noname	-0.0470
19	H12     1.4900     0.4700     2.3800	H	1	noname	0.0653
20	C8    -0.2400     0.3900     1.0800	C.2	1	noname	0.0113
21	O1    -1.1100     0.0500     2.0900	O.3	1	noname	-0.2827
22	H13    -0.6200     0.0500     2.9200	H	1	noname	0.2182
23	C9    -0.7700     0.5300    -0.2200	C.2	1	noname	-0.0055
24	C10     0.1500     0.8800    -1.2300	C.2	1	noname	0.0113
25	C11     1.5100     1.0700    -0.9700	C.2	1	noname	-0.0470
26	H14     2.1900     1.3400    -1.7900	H	1	noname	0.0653
27	O2    -0.3600     1.0500    -2.5000	O.3	1	noname	-0.2827
28	H15     0.3800     1.2400    -3.0900	H	1	noname	0.2182
29	C12    -2.2200     0.3400    -0.5500	C.3	1	noname	0.0138
30	H16    -2.3400     0.4600    -1.6700	H	1	noname	0.0403
31	C13    -2.7300    -1.0700    -0.1800	C.3	1	noname	-0.0100
32	H17    -2.4700    -1.2600     0.9000	H	1	noname	0.0358
33	C14    -2.1100    -2.1300    -1.0300	C.2	1	noname	-0.0845
34	C15    -2.2100    -2.1600    -2.3600	C.2	1	noname	-0.0917
35	H18    -1.7600    -2.9500    -2.9700	H	1	noname	0.0537
36	H19    -2.7500    -1.3900    -2.9200	H	1	noname	0.0537
37	C16    -1.3800    -3.1900    -0.2800	C.3	1	noname	-0.0439
38	H20    -2.0800    -3.7100     0.4300	H	1	noname	0.0276
39	H21    -0.5500    -2.7300     0.3200	H	1	noname	0.0276
40	H22    -0.9400    -3.9500    -0.9700	H	1	noname	0.0276
41	C17    -4.2500    -1.1100    -0.3200	C.3	1	noname	-0.0421
42	H23    -4.6100    -2.1500    -0.0900	H	1	noname	0.0276
43	H24    -4.5300    -0.8700    -1.3800	H	1	noname	0.0276
44	C18    -4.9200    -0.1300     0.6200	C.3	1	noname	-0.0317
45	H25    -4.8700    -0.5200     1.6700	H	1	noname	0.0312
46	H26    -6.0000    -0.0400     0.3500	H	1	noname	0.0312
47	C19    -4.2700     1.2100     0.5900	C.2	1	noname	-0.0768
48	C20    -3.0500     1.4100     0.0900	C.2	1	noname	-0.0770
49	H27    -2.5800     2.4100     0.0900	H	1	noname	0.0582
50	C21    -5.0700     2.3100     1.1800	C.3	1	noname	-0.0439
51	H28    -5.3800     2.0500     2.2200	H	1	noname	0.0276
52	H29    -6.0000     2.4800     0.5700	H	1	noname	0.0276
53	H30    -4.4900     3.2700     1.2100	H	1	noname	0.0276
@<TRIPOS>BOND
1	1	2	1
2	2	3	1
3	2	5	1
4	2	4	1
5	5	7	1
6	5	6	1
7	5	8	1
8	8	10	1
9	8	9	1
10	8	11	1
11	11	12	1
12	11	13	1
13	11	14	1
14	14	17	1
15	14	15	1
16	14	16	1
17	17	25	ar
18	17	18	ar
19	18	19	1
20	18	20	ar
21	20	23	ar
22	20	21	1
23	21	22	1
24	23	24	ar
25	23	29	1
26	24	25	ar
27	24	27	1
28	25	26	1
29	27	28	1
30	29	48	1
31	29	31	1
32	29	30	1
33	31	41	1
34	31	33	1
35	31	32	1
36	33	34	2
37	33	37	1
38	34	35	1
39	34	36	1
40	37	40	1
41	37	38	1
42	37	39	1
43	41	42	1
44	41	43	1
45	41	44	1
46	44	45	1
47	44	46	1
48	44	47	1
49	47	48	2
50	47	50	1
51	48	49	1
52	50	51	1
53	50	52	1
54	50	53	1
@<TRIPOS>SUBSTRUCTURE
1	noname	1
