@<TRIPOS>MOLECULE
generated by VMD
  327  338    1    0    0
SMALL
NO_CHARGES
****
Energy = 0

@<TRIPOS>ATOM
      1  H9        67.3770   43.9300   44.0900   H9    0  B5XE        0.000000
      2  C8        67.1470   42.9200   44.5100   C8    0  B5XE        0.000000
      3  H7        67.6970   42.7900   45.4700   H7    0  B5XE        0.000000
      4  H8        66.0470   42.8500   44.7100   H8    0  B5XE        0.000000
      5  C7        67.5770   41.8400   43.5500   C7    0  B5XE        0.000000
      6  O6        68.3970   40.9600   43.8800   O6    0  B5XE        0.000000
      7  N1        67.0270   41.8400   42.2900   N1    0  B5XE        0.000000
      8  H13       66.3970   42.5700   42.0200  H13    0  B5XE        0.000000
      9  C2        67.3470   40.8400   41.3200   C2    0  B5XE        0.000000
     10  H1        67.5270   39.8600   41.8700   H1    0  B5XE        0.000000
     11  C1        66.2070   40.6000   40.2900   C1    0  B5XE        0.000000
     12  H14       65.9270   41.5300   39.7200  H14    0  B5XE        0.000000
     13  O1        65.1070   40.0500   41.0000   O1    0  B5XE        0.000000
     14  O4        66.5270   39.5400   39.4000   O4    0  B5XE        0.000000
     15  C5        67.6970   39.7700   38.6100   C5    0  B5XE        0.000000
     16  H4        67.5370   40.6700   37.9600   H4    0  B5XE        0.000000
     17  C6        67.8570   38.5100   37.7400   C6    0  B5XE        0.000000
     18  H5        67.1470   38.5600   36.8800   H5    0  B5XE        0.000000
     19  H6        68.9170   38.4700   37.3700   H6    0  B5XE        0.000000
     20  O5        67.6770   37.3300   38.4800   O5    0  B5XE        0.000000
     21  H12       66.7470   37.2900   38.7400  H12    0  B5XE        0.000000
     22  C4        68.9070   39.9900   39.5300   C4    0  B5XE        0.000000
     23  H3        69.1270   39.0500   40.1000   H3    0  B5XE        0.000000
     24  O3        70.0070   40.3100   38.6900   O3    0  B5XE        0.000000
     25  H11       70.7070   40.6200   39.2700  H11    0  B5XE        0.000000
     26  C3        68.6270   41.1500   40.5000   C3    0  B5XE        0.000000
     27  H2        68.5170   42.1100   39.9200   H2    0  B5XE        0.000000
     28  O2        69.7670   41.3700   41.3100   O2    0  B5XE        0.000000
     29  H10       69.7170   40.7500   42.0600  H10    0  B5XE        0.000000
     30  C12       63.9370   39.8500   40.2000  C12    0  B5XE        0.000000
     31  H17       64.1370   40.0700   39.1200  H17    0  B5XE        0.000000
     32  C13       62.8270   40.7700   40.7200  C13    0  B5XE        0.000000
     33  H18       62.6470   40.5900   41.8200  H18    0  B5XE        0.000000
     34  O9        61.6270   40.5100   39.9800   O9    0  B5XE        0.000000
     35  C14       63.1470   42.2500   40.4900  C14    0  B5XE        0.000000
     36  H19       62.2670   42.8800   40.8000  H19    0  B5XE        0.000000
     37  H20       64.0570   42.5200   41.1000  H20    0  B5XE        0.000000
     38  O10       63.5070   42.5200   39.1600  O10    0  B5XE        0.000000
     39  H25       62.7270   42.3200   38.6100  H25    0  B5XE        0.000000
     40  C11       63.5170   38.3800   40.3800  C11    0  B5XE        0.000000
     41  H16       63.3570   38.1700   41.4700  H16    0  B5XE        0.000000
     42  O8        64.5170   37.5100   39.8800   O8    0  B5XE        0.000000
     43  H24       65.3570   37.8300   40.2300  H24    0  B5XE        0.000000
     44  C10       62.2170   38.1400   39.5700  C10    0  B5XE        0.000000
     45  H15       62.4170   38.3700   38.4800  H15    0  B5XE        0.000000
     46  N2        61.7470   36.7900   39.6700   N2    0  B5XE        0.000000
     47  H26       61.8270   36.3500   40.5600  H26    0  B5XE        0.000000
     48  C9        61.1670   39.1600   40.1000   C9    0  B5XE        0.000000
     49  H27       60.8370   38.9500   41.1600  H27    0  B5XE        0.000000
     50  O7        60.0870   39.1800   39.1900   O7    0  B5XE        0.000000
     51  C20       58.9370   39.8800   39.6600  C20    0  B5XE        0.000000
     52  H30       59.1570   40.4500   40.6100  H30    0  B5XE        0.000000
     53  C21       57.8070   38.8700   39.9100  C21    0  B5XE        0.000000
     54  H31       57.6270   38.2600   38.9900  H31    0  B5XE        0.000000
     55  O14       56.6270   39.5700   40.2700  O14    0  B5XE        0.000000
     56  C22       58.1270   37.9400   41.0900  C22    0  B5XE        0.000000
     57  H32       57.2470   37.2700   41.2900  H32    0  B5XE        0.000000
     58  H33       59.0370   37.3400   40.8400  H33    0  B5XE        0.000000
     59  O15       58.4670   38.6700   42.2500  O15    0  B5XE        0.000000
     60  H38       57.6870   39.1800   42.5100  H38    0  B5XE        0.000000
     61  C19       58.5270   40.8500   38.5400  C19    0  B5XE        0.000000
     62  H29       58.3670   40.2800   37.5900  H29    0  B5XE        0.000000
     63  O13       59.5170   41.8400   38.3300  O13    0  B5XE        0.000000
     64  H37       60.3770   41.3700   38.3600  H37    0  B5XE        0.000000
     65  C18       57.2170   41.5900   38.9600  C18    0  B5XE        0.000000
     66  H28       57.4170   42.1600   39.9200  H28    0  B5XE        0.000000
     67  N3        56.7570   42.5100   37.9700   N3    0  B5XE        0.000000
     68  H39       56.8170   42.2200   37.0200  H39    0  B5XE        0.000000
     69  C17       56.1670   40.4800   39.2700  C17    0  B5XE        0.000000
     70  H40       55.8370   39.9200   38.3500  H40    0  B5XE        0.000000
     71  O12       55.0870   41.0900   39.9400  O12    0  B5XE        0.000000
     72  C28       53.9270   40.2600   40.0700  C28    0  B5XE        0.000000
     73  H43       54.1470   39.2000   39.7700  H43    0  B5XE        0.000000
     74  C29       52.8070   40.8300   39.1900  C29    0  B5XE        0.000000
     75  H44       52.6270   41.9100   39.4500  H44    0  B5XE        0.000000
     76  O19       51.6170   40.0700   39.4000  O19    0  B5XE        0.000000
     77  C30       53.1370   40.7100   37.6900  C30    0  B5XE        0.000000
     78  H45       52.2570   41.0700   37.0900  H45    0  B5XE        0.000000
     79  H46       54.0470   41.3100   37.4700  H46    0  B5XE        0.000000
     80  O20       53.4670   39.3800   37.3400  O20    0  B5XE        0.000000
     81  H51       52.6870   38.8400   37.4900  H51    0  B5XE        0.000000
     82  C27       53.5070   40.3100   41.5400  C27    0  B5XE        0.000000
     83  H42       53.3570   41.3800   41.8500  H42    0  B5XE        0.000000
     84  O18       54.4970   39.7400   42.3800  O18    0  B5XE        0.000000
     85  H50       55.3570   40.0400   42.0400  H50    0  B5XE        0.000000
     86  C26       52.2070   39.4900   41.7300  C26    0  B5XE        0.000000
     87  H41       52.3970   38.4100   41.4200  H41    0  B5XE        0.000000
     88  N4        51.7270   39.4900   43.0800   N4    0  B5XE        0.000000
     89  H52       51.7970   40.3400   43.5800  H52    0  B5XE        0.000000
     90  C25       51.1570   40.0900   40.7500  C25    0  B5XE        0.000000
     91  H53       50.8270   41.1200   41.0300  H53    0  B5XE        0.000000
     92  O17       50.0770   39.1800   40.6600  O17    0  B5XE        0.000000
     93  C36       48.9270   39.6900   39.9900  C36    0  B5XE        0.000000
     94  H56       49.1470   40.6800   39.4900  H56    0  B5XE        0.000000
     95  C37       47.7970   39.8700   41.0100  C37    0  B5XE        0.000000
     96  H57       47.6070   38.9000   41.5600  H57    0  B5XE        0.000000
     97  O24       46.6070   40.2800   40.3300  O24    0  B5XE        0.000000
     98  C38       48.1070   40.9800   42.0200  C38    0  B5XE        0.000000
     99  H58       47.2270   41.1200   42.7100  H58    0  B5XE        0.000000
    100  H59       49.0170   40.7000   42.6000  H59    0  B5XE        0.000000
    101  O25       48.4270   42.2000   41.3800  O25    0  B5XE        0.000000
    102  H64       47.6470   42.4800   40.8900  H64    0  B5XE        0.000000
    103  C35       48.5170   38.6500   38.9400  C35    0  B5XE        0.000000
    104  H55       48.3670   37.6500   39.4500  H55    0  B5XE        0.000000
    105  O23       49.5270   38.5000   37.9500  O23    0  B5XE        0.000000
    106  H63       50.3770   38.5200   38.4100  H63    0  B5XE        0.000000
    107  C34       47.2170   39.1100   38.2300  C34    0  B5XE        0.000000
    108  H54       47.4170   40.1100   37.7300  H54    0  B5XE        0.000000
    109  N5        46.7570   38.1900   37.2400   N5    0  B5XE        0.000000
    110  H65       46.8370   37.2200   37.4600  H65    0  B5XE        0.000000
    111  C33       46.1570   39.3400   39.3500  C33    0  B5XE        0.000000
    112  H66       45.8270   38.3800   39.8500  H66    0  B5XE        0.000000
    113  O22       45.0870   40.0600   38.7800  O22    0  B5XE        0.000000
    114  C44       43.9270   40.1400   39.6200  C44    0  B5XE        0.000000
    115  H69       44.1370   39.7700   40.6600  H69    0  B5XE        0.000000
    116  C45       42.7970   39.3100   38.9900  C45    0  B5XE        0.000000
    117  H70       42.6170   39.6500   37.9300  H70    0  B5XE        0.000000
    118  O29       41.6070   39.4900   39.7500  O29    0  B5XE        0.000000
    119  C46       43.1070   37.8200   39.0100  C46    0  B5XE        0.000000
    120  H71       42.2370   37.2400   38.6000  H71    0  B5XE        0.000000
    121  H72       44.0270   37.6200   38.4000  H72    0  B5XE        0.000000
    122  O30       43.4270   37.3600   40.3100  O30    0  B5XE        0.000000
    123  H77       42.6370   37.4900   40.8600  H77    0  B5XE        0.000000
    124  C43       43.5170   41.6200   39.6600  C43    0  B5XE        0.000000
    125  H68       43.3670   42.0000   38.6100  H68    0  B5XE        0.000000
    126  O28       44.5170   42.4100   40.2900  O28    0  B5XE        0.000000
    127  H76       45.3770   42.0800   39.9700  H76    0  B5XE        0.000000
    128  C42       42.2170   41.7700   40.4900  C42    0  B5XE        0.000000
    129  H67       42.4070   41.3800   41.5400  H67    0  B5XE        0.000000
    130  N6        41.7570   43.1200   40.5800   N6    0  B5XE        0.000000
    131  H78       41.8370   43.6800   39.7600  H78    0  B5XE        0.000000
    132  C41       41.1570   40.8400   39.8200  C41    0  B5XE        0.000000
    133  H79       40.8370   41.2000   38.8100  H79    0  B5XE        0.000000
    134  O27       40.0770   40.7100   40.7300  O27    0  B5XE        0.000000
    135  C52       38.9170   40.0800   40.1600  C52    0  B5XE        0.000000
    136  H82       39.1370   39.6400   39.1500  H82    0  B5XE        0.000000
    137  C53       37.7970   41.1200   40.0600  C53    0  B5XE        0.000000
    138  H83       37.6170   41.6000   41.0600  H83    0  B5XE        0.000000
    139  O34       36.6070   40.4800   39.6100  O34    0  B5XE        0.000000
    140  C54       38.1170   42.2000   39.0200  C54    0  B5XE        0.000000
    141  H84       37.2470   42.9000   38.9300  H84    0  B5XE        0.000000
    142  H85       39.0370   42.7500   39.3400  H85    0  B5XE        0.000000
    143  O35       38.4370   41.6400   37.7600  O35    0  B5XE        0.000000
    144  H90       37.6470   41.1800   37.4500  H90    0  B5XE        0.000000
    145  C51       38.5070   38.9700   41.1400  C51    0  B5XE        0.000000
    146  H81       38.3570   39.4100   42.1600  H81    0  B5XE        0.000000
    147  O33       39.4970   37.9600   41.2200  O33    0  B5XE        0.000000
    148  H89       40.3570   38.4100   41.2300  H89    0  B5XE        0.000000
    149  C50       37.1970   38.3000   40.6200  C50    0  B5XE        0.000000
    150  H80       37.3870   37.8700   39.6000  H80    0  B5XE        0.000000
    151  N7        36.7270   37.2500   41.4800   N7    0  B5XE        0.000000
    152  H91       36.8170   37.4000   42.4600  H91    0  B5XE        0.000000
    153  C49       36.1470   39.4400   40.4800  C49    0  B5XE        0.000000
    154  H92       35.8270   39.8800   41.4600  H92    0  B5XE        0.000000
    155  O32       35.0670   38.9300   39.7200  O32    0  B5XE        0.000000
    156  C60       33.9170   39.7800   39.7100  C60    0  B5XE        0.000000
    157  H95       34.1370   40.7900   40.1500  H95    0  B5XE        0.000000
    158  C61       32.7870   39.1000   40.4900  C61    0  B5XE        0.000000
    159  H96       32.5970   38.0700   40.0900  H96    0  B5XE        0.000000
    160  O39       31.6070   39.8900   40.3800  O39    0  B5XE        0.000000
    161  C62       33.0970   39.0200   41.9900  C62    0  B5XE        0.000000
    162  H97       32.2270   38.5700   42.5300  H97    0  B5XE        0.000000
    163  H98       34.0270   38.3900   42.1300  H98    0  B5XE        0.000000
    164  O40       33.4270   40.2800   42.5300  O40    0  B5XE        0.000000
    165 H103       32.6370   40.8400   42.4400 H103    0  B5XE        0.000000
    166  C59       33.5070   39.9300   38.2300  C59    0  B5XE        0.000000
    167  H94       33.3470   38.9100   37.7800  H94    0  B5XE        0.000000
    168  O38       34.4970   40.6100   37.4900  O38    0  B5XE        0.000000
    169 H102       35.3570   40.2600   37.7900 H102    0  B5XE        0.000000
    170  C58       32.2070   40.7800   38.1500  C58    0  B5XE        0.000000
    171  H93       32.3970   41.7900   38.6100  H93    0  B5XE        0.000000
    172  N8        31.7370   40.9600   36.8100   N8    0  B5XE        0.000000
    173 H104       31.8070   40.1800   36.2000 H104    0  B5XE        0.000000
    174  C57       31.1470   40.0500   39.0400  C57    0  B5XE        0.000000
    175 H105       30.8170   39.0600   38.6100 H105    0  B5XE        0.000000
    176  O37       30.0670   40.9500   39.2400  O37    0  B5XE        0.000000
    177  C68       28.9170   40.3500   39.8400  C68    0  B5XE        0.000000
    178 H108       29.1270   39.3100   40.2000 H108    0  B5XE        0.000000
    179  C69       27.7870   40.3100   38.8000  C69    0  B5XE        0.000000
    180 H109       27.6070   41.3500   38.3900 H109    0  B5XE        0.000000
    181  O44       26.5970   39.8200   39.4200  O44    0  B5XE        0.000000
    182  C70       28.0970   39.3500   37.6500  C70    0  B5XE        0.000000
    183 H110       27.2170   39.3000   36.9500 H110    0  B5XE        0.000000
    184 H111       29.0170   39.7000   37.1100 H111    0  B5XE        0.000000
    185  O45       28.4170   38.0600   38.1200  O45    0  B5XE        0.000000
    186 H116       27.6270   37.7100   38.5700 H116    0  B5XE        0.000000
    187  C67       28.5070   41.2500   41.0100  C67    0  B5XE        0.000000
    188 H107       28.3570   42.3100   40.6400 H107    0  B5XE        0.000000
    189  O43       29.5070   41.2600   42.0200  O43    0  B5XE        0.000000
    190 H115       30.3670   41.3000   41.5600 H115    0  B5XE        0.000000
    191  C66       27.2070   40.7000   41.6500  C66    0  B5XE        0.000000
    192 H106       27.3970   39.6500   42.0200 H106    0  B5XE        0.000000
    193  N9        26.7470   41.4900   42.7500   N9    0  B5XE        0.000000
    194 H117       26.8270   42.4800   42.6700 H117    0  B5XE        0.000000
    195  C65       26.1470   40.6200   40.5100  C65    0  B5XE        0.000000
    196 H118       25.8170   41.6400   40.1500 H118    0  B5XE        0.000000
    197  O42       25.0770   39.8400   40.9800  O42    0  B5XE        0.000000
    198  C76       23.9170   39.8600   40.1400  C76    0  B5XE        0.000000
    199 H121       24.1270   40.3700   39.1600 H121    0  B5XE        0.000000
    200  C77       22.7870   40.6000   40.8800  C77    0  B5XE        0.000000
    201 H122       22.6170   40.1300   41.8900 H122    0  B5XE        0.000000
    202  O49       21.5970   40.5300   40.1000  O49    0  B5XE        0.000000
    203  C78       23.0870   42.0900   41.0500  C78    0  B5XE        0.000000
    204 H123       22.2170   42.6000   41.5400 H123    0  B5XE        0.000000
    205 H124       24.0170   42.2000   41.6700 H124    0  B5XE        0.000000
    206  O50       23.3970   42.7100   39.8200  O50    0  B5XE        0.000000
    207 H129       22.6070   42.6500   39.2600 H129    0  B5XE        0.000000
    208  C75       23.5070   38.4000   39.9100  C75    0  B5XE        0.000000
    209 H120       23.3670   37.8900   40.9000 H120    0  B5XE        0.000000
    210  O48       24.5070   37.7100   39.1800  O48    0  B5XE        0.000000
    211 H128       25.3670   37.9900   39.5400 H128    0  B5XE        0.000000
    212  C74       22.2070   38.3600   39.0700  C74    0  B5XE        0.000000
    213 H119       22.3870   38.8800   38.0800 H119    0  B5XE        0.000000
    214  N10       21.7470   37.0300   38.8100  N10    0  B5XE        0.000000
    215 H130       21.8370   36.3700   39.5400 H130    0  B5XE        0.000000
    216  C73       21.1470   39.1900   39.8600  C73    0  B5XE        0.000000
    217 H131       20.8270   38.7100   40.8200 H131    0  B5XE        0.000000
    218  O47       20.0570   39.4400   38.9900  O47    0  B5XE        0.000000
    219  C84       18.9070   39.9900   39.6300  C84    0  B5XE        0.000000
    220 H134       19.1270   40.2900   40.6900 H134    0  B5XE        0.000000
    221  C85       17.7870   38.9400   39.6100  C85    0  B5XE        0.000000
    222 H135       17.6070   38.5900   38.5600 H135    0  B5XE        0.000000
    223  O54       16.5970   39.5200   40.1400  O54    0  B5XE        0.000000
    224  C86       18.1070   37.7400   40.5100  C86    0  B5XE        0.000000
    225 H136       17.2370   37.0300   40.5200 H136    0  B5XE        0.000000
    226 H137       19.0270   37.2300   40.1200 H137    0  B5XE        0.000000
    227  O55       18.4370   38.1400   41.8300  O55    0  B5XE        0.000000
    228 H142       17.6570   38.5700   42.1900 H142    0  B5XE        0.000000
    229  C83       18.4870   41.2200   38.8100  C83    0  B5XE        0.000000
    230 H133       18.3370   40.9100   37.7400 H133    0  B5XE        0.000000
    231  O53       19.4770   42.2200   38.8600  O53    0  B5XE        0.000000
    232 H141       20.3370   41.7800   38.7700 H141    0  B5XE        0.000000
    233  C82       17.1770   41.8100   39.4100  C82    0  B5XE        0.000000
    234 H132       17.3670   42.1000   40.4900 H132    0  B5XE        0.000000
    235  N11       16.7070   42.9600   38.7000  N11    0  B5XE        0.000000
    236 H143       16.7870   42.9400   37.7100 H143    0  B5XE        0.000000
    237  C81       16.1370   40.6500   39.4100  C81    0  B5XE        0.000000
    238 H144       15.8170   40.3400   38.3700 H144    0  B5XE        0.000000
    239  O52       15.0470   41.0600   40.2100  O52    0  B5XE        0.000000
    240  C92       13.8870   40.2200   40.1000  C92    0  B5XE        0.000000
    241 H147       14.1170   39.2700   39.5400 H147    0  B5XE        0.000000
    242  C93       12.7770   41.0000   39.3800  C93    0  B5XE        0.000000
    243 H148       12.6270   42.0000   39.8700 H148    0  B5XE        0.000000
    244  O59       11.5670   40.2500   39.4200  O59    0  B5XE        0.000000
    245  C94       13.1070   41.2000   37.9000  C94    0  B5XE        0.000000
    246 H149       12.2370   41.6900   37.3900 H149    0  B5XE        0.000000
    247 H150       14.0270   41.8300   37.8100 H150    0  B5XE        0.000000
    248  O60       13.4270   39.9800   37.2500  O60    0  B5XE        0.000000
    249 H155       12.6570   39.4100   37.3200 H155    0  B5XE        0.000000
    250  C91       13.4670   39.8900   41.5400  C91    0  B5XE        0.000000
    251 H146       13.3370   40.8400   42.1300 H146    0  B5XE        0.000000
    252  O58       14.4270   39.0700   42.1900  O58    0  B5XE        0.000000
    253 H154       15.2970   39.4300   41.9500 H154    0  B5XE        0.000000
    254  C90       12.1270   39.1000   41.4800  C90    0  B5XE        0.000000
    255 H145       12.2870   38.1900   40.8300 H145    0  B5XE        0.000000
    256  N12       11.6670   38.6600   42.7700  N12    0  B5XE        0.000000
    257 H156       12.1170   39.0400   43.5700 H156    0  B5XE        0.000000
    258  C89       11.1070   40.0200   40.7600  C89    0  B5XE        0.000000
    259 H157       10.9370   40.9900   41.3000 H157    0  B5XE        0.000000
    260  O57        9.8570   39.4400   40.5400  O57    0  B5XE        0.000000
    261 H158        9.9870   38.5200   40.2600 H158    0  B5XE        0.000000
    262  C95       10.8470   37.5500   42.8900  C95    0  B5XE        0.000000
    263  O61       10.3870   36.9900   41.8700  O61    0  B5XE        0.000000
    264  C96       10.5170   37.0800   44.2800  C96    0  B5XE        0.000000
    265 H151        9.8470   36.1900   44.2100 H151    0  B5XE        0.000000
    266 H152        9.9870   37.8900   44.8500 H152    0  B5XE        0.000000
    267 H153       11.4370   36.7900   44.8300 H153    0  B5XE        0.000000
    268  C87       16.4870   44.1800   39.3200  C87    0  B5XE        0.000000
    269  O56       16.5370   44.2900   40.5600  O56    0  B5XE        0.000000
    270  C88       16.1470   45.3500   38.4300  C88    0  B5XE        0.000000
    271 H138       15.9270   46.2300   39.0800 H138    0  B5XE        0.000000
    272 H139       15.2470   45.1200   37.8100 H139    0  B5XE        0.000000
    273 H140       17.0070   45.5900   37.7700 H140    0  B5XE        0.000000
    274  C79       21.5270   36.5600   37.5200  C79    0  B5XE        0.000000
    275  O51       21.5670   37.3200   36.5300  O51    0  B5XE        0.000000
    276  C80       21.2170   35.0900   37.3700  C80    0  B5XE        0.000000
    277 H125       20.9870   34.8800   36.3000 H125    0  B5XE        0.000000
    278 H126       20.3370   34.8100   37.9900 H126    0  B5XE        0.000000
    279 H127       22.0970   34.4700   37.6900 H127    0  B5XE        0.000000
    280  C71       26.5370   40.9600   44.0200  C71    0  B5XE        0.000000
    281  O46       26.5770   39.7300   44.2200  O46    0  B5XE        0.000000
    282  C72       26.2170   41.9300   45.1300  C72    0  B5XE        0.000000
    283 H112       25.9870   41.3500   46.0500 H112    0  B5XE        0.000000
    284 H113       25.3270   42.5500   44.8600 H113    0  B5XE        0.000000
    285 H114       27.0870   42.5900   45.3200 H114    0  B5XE        0.000000
    286  C63       31.5270   42.2100   36.2600  C63    0  B5XE        0.000000
    287  O41       31.5870   43.2500   36.9600  O41    0  B5XE        0.000000
    288  C64       31.1970   42.2700   34.7900  C64    0  B5XE        0.000000
    289  H99       30.9870   43.3300   34.5100  H99    0  B5XE        0.000000
    290 H100       30.2970   41.6500   34.5600 H100    0  B5XE        0.000000
    291 H101       32.0670   41.9000   34.1900 H101    0  B5XE        0.000000
    292  C55       36.5170   35.9600   41.0200  C55    0  B5XE        0.000000
    293  O36       36.5570   35.6800   39.8100  O36    0  B5XE        0.000000
    294  C56       36.1870   34.9200   42.0600  C56    0  B5XE        0.000000
    295  H86       35.9470   33.9600   41.5400  H86    0  B5XE        0.000000
    296  H87       35.2970   35.2300   42.6700  H87    0  B5XE        0.000000
    297  H88       37.0570   34.7600   42.7400  H88    0  B5XE        0.000000
    298  C47       41.5470   43.7600   41.7900  C47    0  B5XE        0.000000
    299  O31       41.5970   43.1400   42.8700  O31    0  B5XE        0.000000
    300  C48       41.2170   45.2300   41.7400  C48    0  B5XE        0.000000
    301  H73       41.0070   45.5900   42.7800  H73    0  B5XE        0.000000
    302  H74       40.3270   45.4200   41.1100  H74    0  B5XE        0.000000
    303  H75       42.0870   45.8100   41.3400  H75    0  B5XE        0.000000
    304  C39       46.5570   38.5600   35.9200  C39    0  B5XE        0.000000
    305  O26       46.6170   39.7500   35.5600  O26    0  B5XE        0.000000
    306  C40       46.2370   37.4500   34.9400  C40    0  B5XE        0.000000
    307  H60       46.0170   37.9000   33.9500  H60    0  B5XE        0.000000
    308  H61       45.3370   36.8700   35.2800  H61    0  B5XE        0.000000
    309  H62       47.1070   36.7500   34.8500  H62    0  B5XE        0.000000
    310  C31       51.5270   38.3100   43.8000  C31    0  B5XE        0.000000
    311  O21       51.5870   37.2000   43.2500  O21    0  B5XE        0.000000
    312  C32       51.1770   38.4600   45.2600  C32    0  B5XE        0.000000
    313  H47       50.9770   37.4500   45.6800  H47    0  B5XE        0.000000
    314  H48       50.2770   39.1000   45.3900  H48    0  B5XE        0.000000
    315  H49       52.0370   38.9200   45.8100  H49    0  B5XE        0.000000
    316  C23       56.5570   43.8600   38.2500  C23    0  B5XE        0.000000
    317  O16       56.6170   44.3000   39.4100  O16    0  B5XE        0.000000
    318  C24       56.2170   44.7500   37.0800  C24    0  B5XE        0.000000
    319  H34       55.9970   45.7700   37.4600  H34    0  B5XE        0.000000
    320  H35       55.3270   44.3600   36.5300  H35    0  B5XE        0.000000
    321  H36       57.0870   44.8000   36.3700  H36    0  B5XE        0.000000
    322  C15       61.5270   36.0000   38.5500  C15    0  B5XE        0.000000
    323  O11       61.5670   36.4700   37.4000  O11    0  B5XE        0.000000
    324  C16       61.1970   34.5400   38.8000  C16    0  B5XE        0.000000
    325  H21       60.9470   34.0600   37.8200  H21    0  B5XE        0.000000
    326  H22       60.3170   34.4500   39.4800  H22    0  B5XE        0.000000
    327  H23       62.0670   34.0200   39.2600  H23    0  B5XE        0.000000
@<TRIPOS>BOND
    1     1     2  1
    2     2     4  1
    3     2     5  1
    4     2     3  1
    5     5     7  1
    6     5     6  1
    7     7     8  1
    8     7     9  1
    9     9    11  1
   10     9    10  1
   11     9    26  1
   12    11    14  1
   13    11    12  1
   14    11    13  1
   15    13    30  1
   16    14    15  1
   17    15    16  1
   18    15    22  1
   19    15    17  1
   20    17    20  1
   21    17    19  1
   22    17    18  1
   23    20    21  1
   24    22    23  1
   25    22    24  1
   26    22    26  1
   27    24    25  1
   28    26    27  1
   29    26    28  1
   30    28    29  1
   31    30    32  1
   32    30    40  1
   33    30    31  1
   34    32    35  1
   35    32    33  1
   36    32    34  1
   37    34    48  1
   38    35    36  1
   39    35    37  1
   40    35    38  1
   41    38    39  1
   42    40    44  1
   43    40    41  1
   44    40    42  1
   45    42    43  1
   46    44    45  1
   47    44    48  1
   48    44    46  1
   49    46   322  1
   50    46    47  1
   51    48    50  1
   52    48    49  1
   53    50    51  1
   54    51    61  1
   55    51    52  1
   56    51    53  1
   57    53    54  1
   58    53    55  1
   59    53    56  1
   60    55    69  1
   61    56    59  1
   62    56    58  1
   63    56    57  1
   64    59    60  1
   65    61    65  1
   66    61    63  1
   67    61    62  1
   68    63    64  1
   69    65    67  1
   70    65    66  1
   71    65    69  1
   72    67   316  1
   73    67    68  1
   74    69    70  1
   75    69    71  1
   76    71    72  1
   77    72    74  1
   78    72    82  1
   79    72    73  1
   80    74    77  1
   81    74    76  1
   82    74    75  1
   83    76    90  1
   84    77    79  1
   85    77    80  1
   86    77    78  1
   87    80    81  1
   88    82    84  1
   89    82    83  1
   90    82    86  1
   91    84    85  1
   92    86    90  1
   93    86    88  1
   94    86    87  1
   95    88    89  1
   96    88   310  1
   97    90    91  1
   98    90    92  1
   99    92    93  1
  100    93   103  1
  101    93    94  1
  102    93    95  1
  103    95    98  1
  104    95    96  1
  105    95    97  1
  106    97   111  1
  107    98   100  1
  108    98   101  1
  109    98    99  1
  110   101   102  1
  111   103   105  1
  112   103   104  1
  113   103   107  1
  114   105   106  1
  115   107   109  1
  116   107   111  1
  117   107   108  1
  118   109   304  1
  119   109   110  1
  120   111   113  1
  121   111   112  1
  122   113   114  1
  123   114   116  1
  124   114   115  1
  125   114   124  1
  126   116   119  1
  127   116   117  1
  128   116   118  1
  129   118   132  1
  130   119   120  1
  131   119   121  1
  132   119   122  1
  133   122   123  1
  134   124   125  1
  135   124   126  1
  136   124   128  1
  137   126   127  1
  138   128   130  1
  139   128   129  1
  140   128   132  1
  141   130   131  1
  142   130   298  1
  143   132   133  1
  144   132   134  1
  145   134   135  1
  146   135   137  1
  147   135   145  1
  148   135   136  1
  149   137   138  1
  150   137   139  1
  151   137   140  1
  152   139   153  1
  153   140   141  1
  154   140   143  1
  155   140   142  1
  156   143   144  1
  157   145   149  1
  158   145   147  1
  159   145   146  1
  160   147   148  1
  161   149   153  1
  162   149   150  1
  163   149   151  1
  164   151   292  1
  165   151   152  1
  166   153   154  1
  167   153   155  1
  168   155   156  1
  169   156   166  1
  170   156   157  1
  171   156   158  1
  172   158   159  1
  173   158   160  1
  174   158   161  1
  175   160   174  1
  176   161   162  1
  177   161   163  1
  178   161   164  1
  179   164   165  1
  180   166   170  1
  181   166   167  1
  182   166   168  1
  183   168   169  1
  184   170   171  1
  185   170   174  1
  186   170   172  1
  187   172   173  1
  188   172   286  1
  189   174   176  1
  190   174   175  1
  191   176   177  1
  192   177   179  1
  193   177   187  1
  194   177   178  1
  195   179   180  1
  196   179   181  1
  197   179   182  1
  198   181   195  1
  199   182   184  1
  200   182   183  1
  201   182   185  1
  202   185   186  1
  203   187   188  1
  204   187   189  1
  205   187   191  1
  206   189   190  1
  207   191   195  1
  208   191   192  1
  209   191   193  1
  210   193   194  1
  211   193   280  1
  212   195   196  1
  213   195   197  1
  214   197   198  1
  215   198   199  1
  216   198   200  1
  217   198   208  1
  218   200   203  1
  219   200   201  1
  220   200   202  1
  221   202   216  1
  222   203   206  1
  223   203   205  1
  224   203   204  1
  225   206   207  1
  226   208   210  1
  227   208   212  1
  228   208   209  1
  229   210   211  1
  230   212   213  1
  231   212   216  1
  232   212   214  1
  233   214   274  1
  234   214   215  1
  235   216   218  1
  236   216   217  1
  237   218   219  1
  238   219   229  1
  239   219   220  1
  240   219   221  1
  241   221   222  1
  242   221   223  1
  243   221   224  1
  244   223   237  1
  245   224   227  1
  246   224   226  1
  247   224   225  1
  248   227   228  1
  249   229   231  1
  250   229   233  1
  251   229   230  1
  252   231   232  1
  253   233   235  1
  254   233   234  1
  255   233   237  1
  256   235   236  1
  257   235   268  1
  258   237   238  1
  259   237   239  1
  260   239   240  1
  261   240   250  1
  262   240   242  1
  263   240   241  1
  264   242   245  1
  265   242   243  1
  266   242   244  1
  267   244   258  1
  268   245   246  1
  269   245   248  1
  270   245   247  1
  271   248   249  1
  272   250   251  1
  273   250   252  1
  274   250   254  1
  275   252   253  1
  276   254   255  1
  277   254   256  1
  278   254   258  1
  279   256   257  1
  280   256   262  1
  281   258   260  1
  282   258   259  1
  283   260   261  1
  284   262   263  1
  285   262   264  1
  286   264   265  1
  287   264   267  1
  288   264   266  1
  289   268   270  1
  290   268   269  1
  291   270   271  1
  292   270   272  1
  293   270   273  1
  294   274   275  1
  295   274   276  1
  296   276   277  1
  297   276   279  1
  298   276   278  1
  299   280   281  1
  300   280   282  1
  301   282   285  1
  302   282   283  1
  303   282   284  1
  304   286   288  1
  305   286   287  1
  306   288   290  1
  307   288   291  1
  308   288   289  1
  309   292   294  1
  310   292   293  1
  311   294   295  1
  312   294   296  1
  313   294   297  1
  314   298   299  1
  315   298   300  1
  316   300   302  1
  317   300   301  1
  318   300   303  1
  319   304   305  1
  320   304   306  1
  321   306   309  1
  322   306   307  1
  323   306   308  1
  324   310   311  1
  325   310   312  1
  326   312   314  1
  327   312   315  1
  328   312   313  1
  329   316   317  1
  330   316   318  1
  331   318   320  1
  332   318   319  1
  333   318   321  1
  334   322   323  1
  335   322   324  1
  336   324   325  1
  337   324   327  1
  338   324   326  1

@<TRIPOS>SUBSTRUCTURE
1 ****        1 TEMP                        0 ****  **** 0 ROOT
