@<TRIPOS>MOLECULE
generated by VMD
   31   34    1    0    0
SMALL
NO_CHARGES
****
Energy = 0

@<TRIPOS>ATOM
      1  H1        37.7600   57.4800   82.2800   H1   18  FFX9        0.000000
      2  O1        37.9600   56.6400   81.8400   O1   18  FFX9        0.000000
      3  C3        37.2400   56.6500   80.6100   C3   18  FFX9        0.000000
      4  HC        37.7600   57.3800   79.9000   HC   18  FFX9        0.000000
      5  C4        35.8500   57.2500   80.7900   C4   18  FFX9        0.000000
      6  C5        35.0900   57.2100   79.5000   C5   18  FFX9        0.000000
      7  C10       35.0400   55.8500   78.8600  C10   18  FFX9        0.000000
      8  C19       34.2500   54.9300   79.7800  C19   18  FFX9        0.000000
      9  C9        34.5600   55.9800   77.4000   C9   18  FFX9        0.000000
     10  C11       34.1300   54.6400   76.8300  C11   18  FFX9        0.000000
     11  C12       33.5600   54.6800   75.4200  C12   18  FFX9        0.000000
     12  C13       32.3500   55.5900   75.4100  C13   18  FFX9        0.000000
     13  C18       31.2100   54.9400   76.1700  C18   18  FFX9        0.000000
     14  C17       31.8100   56.0000   74.0200  C17   18  FFX9        0.000000
     15  C20       31.1400   54.9700   73.1200  C20   18  FFX9        0.000000
     16  C22       30.2600   55.6900   72.1000  C22   18  FFX9        0.000000
     17  C23       29.0900   54.7900   71.7000  C23   18  FFX9        0.000000
     18  C24       28.0900   55.5900   70.8800  C24   18  FFX9        0.000000
     19  C25       26.8300   54.7600   70.6900  C25   18  FFX9        0.000000
     20  C27       25.8000   55.6800   70.0500  C27   18  FFX9        0.000000
     21  C26       26.8800   53.4400   69.9300  C26   18  FFX9        0.000000
     22  C21       32.1000   54.0700   72.3700  C21   18  FFX9        0.000000
     23  C16       31.0300   57.2900   74.3000  C16   18  FFX9        0.000000
     24  C15       31.4600   57.8100   75.6800  C15   18  FFX9        0.000000
     25  C14       32.6900   56.9700   76.0000  C14   18  FFX9        0.000000
     26  C8        33.3500   56.9200   77.3700   C8   18  FFX9        0.000000
     27  C7        33.7700   58.3300   77.7800   C7   18  FFX9        0.000000
     28  C6        34.4500   58.3200   79.0900   C6   18  FFX9        0.000000
     29  HC1       34.5400   59.2400   79.6800  HC1   18  FFX9        0.000000
     30  C1        36.4600   55.2900   78.7000   C1   18  FFX9        0.000000
     31  C2        37.2800   55.2700   79.9700   C2   18  FFX9        0.000000
@<TRIPOS>BOND
    1     1     2  1
    2     2     3  1
    3     3    31  1
    4     3     4  1
    5     3     5  1
    6     5     6  1
    7     6    28  1
    8     6     7  1
    9     7    30  1
   10     7     8  1
   11     7     9  1
   12     9    26  1
   13     9    10  1
   14    10    11  1
   15    11    12  1
   16    12    25  1
   17    12    13  1
   18    12    14  1
   19    14    15  1
   20    14    23  1
   21    15    22  1
   22    15    16  1
   23    16    17  1
   24    17    18  1
   25    18    19  1
   26    19    21  1
   27    19    20  1
   28    23    24  1
   29    24    25  1
   30    25    26  1
   31    26    27  1
   32    27    28  1
   33    28    29  1
   34    30    31  1

@<TRIPOS>SUBSTRUCTURE
1 ****        1 TEMP                        0 ****  **** 0 ROOT
