@<TRIPOS>MOLECULE
generated by VMD
   30   32    1    0    0
SMALL
NO_CHARGES
****
Energy = 0

@<TRIPOS>ATOM
      1  H30       -4.4800    0.2900   -0.8900  H30    1  EFZ        0.000000
      2  C21       -3.4200    0.1200   -0.7400  C21    1  EFZ        0.000000
      3  C18       -2.8700   -1.1300   -1.0400  C18    1  EFZ        0.000000
      4  H29       -3.5000   -1.9200   -1.4300  H29    1  EFZ        0.000000
      5  C15       -1.5000   -1.3500   -0.8400  C15    1  EFZ        0.000000
      6  N7        -0.9300   -2.5900   -1.1400   N7    1  EFZ        0.000000
      7  H28       -1.5200   -3.3600   -1.4300  H28    1  EFZ        0.000000
      8  C19        0.4200   -2.8200   -1.2000  C19    1  EFZ        0.000000
      9  O6         0.9100   -3.8700   -1.5700   O6    1  EFZ        0.000000
     10  O5         1.2300   -1.7800   -0.8700   O5    1  EFZ        0.000000
     11  C11        0.7800   -0.6500   -0.0700  C11    1  EFZ        0.000000
     12  C16        0.9600   -1.1000    1.4100  C16    1  EFZ        0.000000
     13  F2         0.1800   -2.1700    1.6700   F2    1  EFZ        0.000000
     14  F3         2.2300   -1.4300    1.6700   F3    1  EFZ        0.000000
     15  F4         0.6000   -0.1100    2.2500   F4    1  EFZ        0.000000
     16  C13       -0.6900   -0.3300   -0.3400  C13    1  EFZ        0.000000
     17  C17       -1.2400    0.9200   -0.0500  C17    1  EFZ        0.000000
     18  H27       -0.6100    1.7200    0.3200  H27    1  EFZ        0.000000
     19  C20       -2.6000    1.1300   -0.2500  C20    1  EFZ        0.000000
     20  CL1       -3.2900    2.7100    0.1200  CL1    1  EFZ        0.000000
     21  C14        1.6700    0.4700   -0.3700  C14    1  EFZ        0.000000
     22  C12        2.4000    1.4000   -0.6200  C12    1  EFZ        0.000000
     23  C8         3.2800    2.4900   -0.9300   C8    1  EFZ        0.000000
     24  H22        4.3100    2.2000   -1.1000  H22    1  EFZ        0.000000
     25  C9         3.0700    3.8600   -0.2800   C9    1  EFZ        0.000000
     26  H23        3.9700    4.4000    0.0100  H23    1  EFZ        0.000000
     27  H24        2.2300    3.9600    0.4100  H24    1  EFZ        0.000000
     28  C10        2.7700    3.6800   -1.7400  C10    1  EFZ        0.000000
     29  H25        1.7300    3.6600   -2.0500  H25    1  EFZ        0.000000
     30  H26        3.4600    4.1000   -2.4700  H26    1  EFZ        0.000000
@<TRIPOS>BOND
    1     1     2  1
    2     2    19  1
    3     2     3  1
    4     3     4  1
    5     3     5  1
    6     5    16  1
    7     5     6  1
    8     6     7  1
    9     6     8  1
   10     8     9  1
   11     8    10  1
   12    10    11  1
   13    11    16  1
   14    11    21  1
   15    11    12  1
   16    12    15  1
   17    12    14  1
   18    12    13  1
   19    16    17  1
   20    17    19  1
   21    17    18  1
   22    19    20  1
   23    21    22  1
   24    22    23  1
   25    23    24  1
   26    23    28  1
   27    23    25  1
   28    25    28  1
   29    25    26  1
   30    25    27  1
   31    28    30  1
   32    28    29  1

@<TRIPOS>SUBSTRUCTURE
1 ****        1 TEMP                        0 ****  **** 0 ROOT
