@<TRIPOS>MOLECULE
Molecule Name
53 55 1
SMALL
USER_CHARGES
@<TRIPOS>ATOM
1	H1    13.5293    61.2045   -52.4924	H	1	noname	0.0260
2	C1    13.6309    61.5841   -51.4581	C.3	1	noname	-0.0352
3	H2    13.6705    62.7034   -51.4278	H	1	noname	0.0260
4	H3    14.5598    61.1935   -51.0375	H	1	noname	0.0260
5	C2    12.4975    61.1398   -50.6329	C.3	1	noname	0.0731
6	O1    11.4025    61.8484   -51.2846	O.3	1	noname	-0.2673
7	C3    12.5461    61.8438   -49.2462	C.3	1	noname	-0.0352
8	H4    13.4810    61.6136   -48.6963	H	1	noname	0.0260
9	H5    12.3190    62.9234   -49.1976	H	1	noname	0.0260
10	H6    11.7037    61.4585   -48.5941	H	1	noname	0.0260
11	C4    10.7594    61.1363   -52.3284	C.2	1	noname	0.0135
12	C5    11.0664    59.8534   -52.7741	C.2	1	noname	-0.0029
13	C6    12.0808    59.0467   -52.0186	C.3	1	noname	0.0128
14	H7    13.1408    59.1215   -52.5430	H	1	noname	0.0401
15	C7    11.6858    57.6041   -51.8773	C.2	1	noname	-0.0772
16	H8    10.9139    57.2452   -52.5338	H	1	noname	0.0581
17	C8    12.2255    56.9189   -50.8610	C.2	1	noname	-0.0769
18	C9    13.0773    57.4685   -49.7366	C.3	1	noname	-0.0319
19	H9    12.3847    57.3872   -48.8107	H	1	noname	0.0312
20	H10    13.9755    56.8040   -49.5170	H	1	noname	0.0312
21	C10    11.6013    55.6674   -50.4963	C.3	1	noname	-0.0439
22	H11    10.6305    55.8382   -49.9643	H	1	noname	0.0276
23	H12    11.4194    55.0366   -51.3940	H	1	noname	0.0276
24	H13    12.2608    55.1199   -49.8177	H	1	noname	0.0276
25	C11    13.4207    58.8944   -49.9676	C.3	1	noname	-0.0431
26	H14    14.3583    58.9553   -50.5828	H	1	noname	0.0274
27	H15    13.6971    59.3465   -48.9717	H	1	noname	0.0274
28	C12    12.2644    59.6348   -50.6011	C.3	1	noname	-0.0013
29	H16    11.2422    59.4856   -49.9675	H	1	noname	0.0341
30	C13    10.5389    59.4712   -54.0174	C.2	1	noname	0.0121
31	O2    11.0984    58.4201   -54.7165	O.3	1	noname	-0.2826
32	H17    11.6963    58.0200   -54.0533	H	1	noname	0.2182
33	C14     9.5810    60.2614   -54.6251	C.2	1	noname	-0.0456
34	H18     9.0410    59.8407   -55.4259	H	1	noname	0.0653
35	C15     9.1503    61.4818   -54.1187	C.2	1	noname	-0.0384
36	C16     9.8360    61.9711   -53.0356	C.2	1	noname	-0.0444
37	H19     9.5397    62.8412   -52.5346	H	1	noname	0.0653
38	C17     8.1324    62.2775   -54.8612	C.3	1	noname	0.0093
39	H20     7.9847    61.8445   -55.8913	H	1	noname	0.0316
40	H21     8.5859    63.2764   -55.0068	H	1	noname	0.0316
41	C18     6.7773    62.4865   -54.1840	C.3	1	noname	-0.0492
42	H22     6.4162    61.4241   -53.9516	H	1	noname	0.0270
43	H23     7.0255    62.8717   -53.1828	H	1	noname	0.0270
44	C19     5.8322    63.2871   -55.0418	C.3	1	noname	-0.0532
45	H24     5.8858    62.9930   -56.0935	H	1	noname	0.0266
46	H25     6.2091    64.3204   -54.9012	H	1	noname	0.0266
47	C20     4.3639    63.2839   -54.5664	C.3	1	noname	-0.0561
48	H26     4.0908    62.1863   -54.7180	H	1	noname	0.0264
49	H27     4.3787    63.3976   -53.4636	H	1	noname	0.0264
50	C21     3.4436    64.2453   -55.3202	C.3	1	noname	-0.0654
51	H28     3.5321    63.9278   -56.4055	H	1	noname	0.0230
52	H29     2.3833    64.1611   -54.9890	H	1	noname	0.0230
53	H30     3.7741    65.3107   -55.3038	H	1	noname	0.0230
@<TRIPOS>BOND
1	1	2	1
2	2	3	1
3	2	5	1
4	2	4	1
5	5	6	1
6	5	7	1
7	5	28	1
8	6	11	1
9	7	8	1
10	7	9	1
11	7	10	1
12	11	36	ar
13	11	12	ar
14	12	30	ar
15	12	13	1
16	13	15	1
17	13	28	1
18	13	14	1
19	15	17	2
20	15	16	1
21	17	21	1
22	17	18	1
23	18	19	1
24	18	20	1
25	18	25	1
26	21	22	1
27	21	24	1
28	21	23	1
29	25	27	1
30	25	28	1
31	25	26	1
32	28	29	1
33	30	31	1
34	30	33	2
35	31	32	1
36	33	34	1
37	33	35	ar
38	35	36	2
39	35	38	1
40	36	37	1
41	38	41	1
42	38	39	1
43	38	40	1
44	41	42	1
45	41	43	1
46	41	44	1
47	44	47	1
48	44	45	1
49	44	46	1
50	47	48	1
51	47	49	1
52	47	50	1
53	50	51	1
54	50	52	1
55	50	53	1
@<TRIPOS>SUBSTRUCTURE
1	noname	1
