@<TRIPOS>MOLECULE
5757
   44    47     1     0     0
SMALL
bcc


@<TRIPOS>ATOM
      1 O            5.0610     1.1500     0.2670 oh         1 UNL      -0.591800
      2 O1          -5.8570     0.1480     0.4390 oh         1 UNL      -0.499100
      3 C            2.6640     0.5840     0.1480 c5         1 UNL      -0.044000
      4 C1           1.9840    -0.6950    -0.3790 c5         1 UNL      -0.065700
      5 C2           0.5150    -0.7800     0.0350 c6         1 UNL      -0.047700
      6 C3          -0.2460     0.4360    -0.5750 c6         1 UNL      -0.008400
      7 C4           4.0950     0.3350    -0.3670 c5         1 UNL       0.141100
      8 C5           1.9550     1.7930    -0.4750 c6         1 UNL      -0.063400
      9 C6           2.9440    -1.8060     0.0380 c5         1 UNL      -0.068400
     10 C7           0.4400     1.7760    -0.1950 c6         1 UNL      -0.071400
     11 C8           4.3370    -1.1610    -0.0880 c5         1 UNL      -0.117400
     12 C9          -0.1540    -2.0730    -0.4350 c6         1 UNL      -0.073400
     13 C10          2.6650     0.7310     1.6910 c3         1 UNL      -0.077100
     14 C11         -1.7400     0.3640    -0.2670 ca         1 UNL      -0.099300
     15 C12         -1.5690    -2.1590     0.1310 c6         1 UNL      -0.037100
     16 C13         -2.3530    -0.8740     0.0220 ca         1 UNL      -0.037300
     17 C14         -2.5550     1.5060    -0.3510 ca         1 UNL      -0.091000
     18 C15         -3.7370    -0.9300     0.2690 ca         1 UNL      -0.162000
     19 C16         -3.9290     1.4360    -0.1120 ca         1 UNL      -0.215000
     20 C17         -4.5200     0.2190     0.2030 ca         1 UNL       0.122100
     21 H            2.0040    -0.6750    -1.4820 hc         1 UNL       0.045700
     22 H1           0.4400    -0.7500     1.1300 hc         1 UNL       0.063700
     23 H2          -0.1780     0.3540    -1.6710 hc         1 UNL       0.053700
     24 H3           4.1530     0.5200    -1.4470 h1         1 UNL       0.033700
     25 H4           2.1050     1.7940    -1.5630 hc         1 UNL       0.045200
     26 H5           2.3880     2.7300    -0.1050 hc         1 UNL       0.045200
     27 H6           2.8550    -2.6880    -0.6040 hc         1 UNL       0.045200
     28 H7           2.7630    -2.1270     1.0700 hc         1 UNL       0.045200
     29 H8           0.2520     2.0030     0.8610 hc         1 UNL       0.043200
     30 H9           0.0010     2.6010    -0.7670 hc         1 UNL       0.043200
     31 H10          4.9230    -1.3210     0.8240 hc         1 UNL       0.047200
     32 H11          4.9010    -1.6100    -0.9120 hc         1 UNL       0.047200
     33 H12          0.4100    -2.9540    -0.1110 hc         1 UNL       0.044200
     34 H13         -0.1890    -2.1010    -1.5320 hc         1 UNL       0.044200
     35 H14          3.1680     1.6590     1.9900 hc         1 UNL       0.041367
     36 H15          1.6580     0.7700     2.1140 hc         1 UNL       0.041367
     37 H16          3.1880    -0.0910     2.1900 hc         1 UNL       0.041367
     38 H17         -1.5120    -2.4290     1.1930 hc         1 UNL       0.052700
     39 H18         -2.1030    -2.9660    -0.3850 hc         1 UNL       0.052700
     40 H19          5.9360     0.8680    -0.0520 ho         1 UNL       0.398000
     41 H20         -2.1400     2.4750    -0.6120 ha         1 UNL       0.134000
     42 H21         -4.2040    -1.8810     0.5140 ha         1 UNL       0.148000
     43 H22         -4.5260     2.3420    -0.1800 ha         1 UNL       0.132000
     44 H23         -6.2410     1.0380     0.3490 ho         1 UNL       0.418000
@<TRIPOS>BOND
     1     1     7 1   
     2     1    40 1   
     3     2    20 1   
     4     2    44 1   
     5     3     4 1   
     6     3     7 1   
     7     3     8 1   
     8     3    13 1   
     9     4     5 1   
    10     4     9 1   
    11     4    21 1   
    12     5     6 1   
    13     5    12 1   
    14     5    22 1   
    15     6    10 1   
    16     6    14 1   
    17     6    23 1   
    18     7    11 1   
    19     7    24 1   
    20     8    10 1   
    21     8    25 1   
    22     8    26 1   
    23     9    11 1   
    24     9    27 1   
    25     9    28 1   
    26    10    29 1   
    27    10    30 1   
    28    11    31 1   
    29    11    32 1   
    30    12    15 1   
    31    12    33 1   
    32    12    34 1   
    33    13    35 1   
    34    13    36 1   
    35    13    37 1   
    36    14    16 ar  
    37    14    17 ar  
    38    15    16 1   
    39    15    38 1   
    40    15    39 1   
    41    16    18 ar  
    42    17    19 ar  
    43    17    41 1   
    44    18    20 ar  
    45    18    42 1   
    46    19    20 ar  
    47    19    43 1   
@<TRIPOS>SUBSTRUCTURE
     1 UNL         1 TEMP              0 ****  ****    0 ROOT
