@<TRIPOS>MOLECULE
54678486
   39    41     1     0     0
SMALL
bcc


@<TRIPOS>ATOM
      1 O           -2.0920     0.5090     1.6550 os         1 UNL      -0.324200
      2 O1          -0.1540    -0.7320    -1.8410 oh         1 UNL      -0.490100
      3 O2          -0.1590     1.4170     2.4380 o          1 UNL      -0.555500
      4 O3           0.6110     3.4380     0.3800 o          1 UNL      -0.524100
      5 C            1.4230     0.7210     0.2670 c3         1 UNL       0.046800
      6 C1          -0.0390     0.3680     0.3040 cc         1 UNL      -0.226400
      7 C2           1.7170     1.6960    -0.8900 c3         1 UNL      -0.180400
      8 C3           2.2870    -0.5300     0.2140 ca         1 UNL      -0.081300
      9 C4          -0.7120    -0.2900    -0.6590 cd         1 UNL       0.218900
     10 C5          -2.1380    -0.5910    -0.5110 ca         1 UNL      -0.183800
     11 C6          -0.7420     0.8100     1.5440 c          1 UNL       0.733800
     12 C7           1.2340     3.1170    -0.6310 c          1 UNL       0.563100
     13 C8           2.6370    -1.1870     1.3940 ca         1 UNL      -0.121000
     14 C9           2.7290    -1.0200    -1.0150 ca         1 UNL      -0.121000
     15 C10         -2.7880    -0.1810     0.6480 ca         1 UNL       0.169100
     16 C11         -2.8890    -1.2750    -1.4770 ca         1 UNL      -0.085000
     17 C12          3.4290    -2.3340     1.3450 ca         1 UNL      -0.133500
     18 C13          3.5220    -2.1670    -1.0630 ca         1 UNL      -0.133500
     19 C14         -4.1430    -0.4280     0.8690 ca         1 UNL      -0.145000
     20 C15          1.5200     4.1230    -1.7160 c3         1 UNL      -0.202100
     21 C16          3.8720    -2.8240     0.1170 ca         1 UNL      -0.129000
     22 C17         -4.2490    -1.5310    -1.2710 ca         1 UNL      -0.154000
     23 C18         -4.8750    -1.1080    -0.1000 ca         1 UNL      -0.080000
     24 H            1.7360     1.2440     1.1790 hc         1 UNL       0.107700
     25 H1           1.2790     1.3750    -1.8410 hc         1 UNL       0.076700
     26 H2           2.8020     1.7790    -1.0340 hc         1 UNL       0.076700
     27 H3           2.2980    -0.8160     2.3570 ha         1 UNL       0.141500
     28 H4           2.4820    -0.5410    -1.9560 ha         1 UNL       0.141500
     29 H5          -2.4480    -1.6400    -2.4000 ha         1 UNL       0.130000
     30 H6           3.7020    -2.8450     2.2640 ha         1 UNL       0.130500
     31 H7           3.8660    -2.5500    -2.0200 ha         1 UNL       0.130500
     32 H8          -4.6270    -0.0970     1.7830 ha         1 UNL       0.165000
     33 H9           2.5960     4.1710    -1.8980 hc         1 UNL       0.062700
     34 H10          1.1730     5.1120    -1.4030 hc         1 UNL       0.062700
     35 H11          0.9950     3.8340    -2.6300 hc         1 UNL       0.062700
     36 H12          4.4890    -3.7170     0.0790 ha         1 UNL       0.130000
     37 H13         -4.8190    -2.0650    -2.0270 ha         1 UNL       0.143000
     38 H14         -0.7720    -0.5520    -2.5680 ho         1 UNL       0.431000
     39 H15         -5.9310    -1.3100     0.0560 ha         1 UNL       0.145000
@<TRIPOS>BOND
     1     1    11 1   
     2     1    15 1   
     3     2     9 1   
     4     2    38 1   
     5     3    11 2   
     6     4    12 2   
     7     5     6 1   
     8     5     7 1   
     9     5     8 1   
    10     5    24 1   
    11     6     9 2   
    12     6    11 1   
    13     7    12 1   
    14     7    25 1   
    15     7    26 1   
    16     8    13 ar  
    17     8    14 ar  
    18     9    10 1   
    19    10    15 ar  
    20    10    16 ar  
    21    12    20 1   
    22    13    17 ar  
    23    13    27 1   
    24    14    18 ar  
    25    14    28 1   
    26    15    19 ar  
    27    16    22 ar  
    28    16    29 1   
    29    17    21 ar  
    30    17    30 1   
    31    18    21 ar  
    32    18    31 1   
    33    19    23 ar  
    34    19    32 1   
    35    20    33 1   
    36    20    34 1   
    37    20    35 1   
    38    21    36 1   
    39    22    23 ar  
    40    22    37 1   
    41    23    39 1   
@<TRIPOS>SUBSTRUCTURE
     1 UNL         1 TEMP              0 ****  ****    0 ROOT
