@<TRIPOS>MOLECULE
246983
   81    84     1     0     0
SMALL
bcc


@<TRIPOS>ATOM
      1 O           -6.4760     1.4140     0.0130 oh         1 UNL      -0.597800
      2 C            1.1120     0.6200     0.4370 c5         1 UNL      -0.036000
      3 C1           0.4650    -0.7500     0.0350 c5         1 UNL      -0.014800
      4 C2           2.6220     0.2890     0.3460 c5         1 UNL      -0.053700
      5 C3          -3.2560     0.5860    -0.0940 c6         1 UNL       0.006200
      6 C4          -1.0510    -0.6690     0.1720 c2         1 UNL      -0.095400
      7 C5          -3.9080    -0.8410    -0.1060 c6         1 UNL      -0.044700
      8 C6          -1.7030     0.4780    -0.1540 c2         1 UNL      -0.117400
      9 C7           1.2730    -1.7080     0.9360 c5         1 UNL      -0.069400
     10 C8           0.6110     1.6900    -0.5330 c6         1 UNL      -0.062400
     11 C9           2.7100    -1.1410     0.9310 c5         1 UNL      -0.077400
     12 C10         -0.9310     1.7540    -0.5430 c6         1 UNL      -0.034200
     13 C11         -5.4890    -0.8810    -0.0730 c6         1 UNL      -0.070000
     14 C12         -1.7550    -1.9270     0.6160 c6         1 UNL      -0.036200
     15 C13         -3.2390    -1.7560     0.9270 c6         1 UNL      -0.074400
     16 C14         -3.8100     1.3710    -1.3230 c6         1 UNL      -0.077400
     17 C15          3.5830     1.2610     1.0200 c3         1 UNL      -0.055700
     18 C16          0.7640     1.0750     1.8910 c3         1 UNL      -0.087100
     19 C17          0.7110    -1.1970    -1.4400 c3         1 UNL      -0.081100
     20 C18         -6.1050     0.3340    -0.8390 c6         1 UNL       0.148100
     21 C19         -5.1500     0.8830    -1.8910 c6         1 UNL      -0.110400
     22 C20         -3.5520     1.3660     1.2110 c3         1 UNL      -0.087100
     23 C21         -5.9310    -2.1650    -0.8340 c3         1 UNL      -0.086100
     24 C22         -6.0740    -1.0090     1.3490 c3         1 UNL      -0.086100
     25 C23          5.0600     0.8430     0.8560 c3         1 UNL      -0.074400
     26 C24          3.3870     2.6680     0.4430 c3         1 UNL      -0.090100
     27 C25          5.5700     0.7900    -0.5910 c3         1 UNL      -0.047200
     28 C26          7.0280     0.4350    -0.6800 c2         1 UNL      -0.175200
     29 C27          7.5920    -0.7880    -0.6880 c2         1 UNL      -0.126400
     30 C28          9.0870    -0.9340    -0.7910 c3         1 UNL      -0.057400
     31 C29          6.8510    -2.0920    -0.6000 c3         1 UNL      -0.057400
     32 H            2.8870     0.2400    -0.7160 hc         1 UNL       0.048700
     33 H1          -3.6280    -1.2670    -1.0850 hc         1 UNL       0.050700
     34 H2           1.2570    -2.7450     0.5830 hc         1 UNL       0.043700
     35 H3           0.8880    -1.7170     1.9620 hc         1 UNL       0.043700
     36 H4           0.9720     1.4930    -1.5500 hc         1 UNL       0.040700
     37 H5           0.9620     2.6950    -0.2940 hc         1 UNL       0.040700
     38 H6           3.1100    -1.1560     1.9510 hc         1 UNL       0.042200
     39 H7           3.3660    -1.7620     0.3110 hc         1 UNL       0.042200
     40 H8          -1.2300     2.0900    -1.5400 hc         1 UNL       0.043700
     41 H9          -1.2240     2.5510     0.1510 hc         1 UNL       0.043700
     42 H10         -1.6430    -2.6820    -0.1720 hc         1 UNL       0.048700
     43 H11         -1.2790    -2.3350     1.5140 hc         1 UNL       0.048700
     44 H12         -3.7000    -2.7500     0.9350 hc         1 UNL       0.044200
     45 H13         -3.3560    -1.3530     1.9390 hc         1 UNL       0.044200
     46 H14         -3.1060     1.3190    -2.1630 hc         1 UNL       0.043700
     47 H15         -3.8970     2.4370    -1.0750 hc         1 UNL       0.043700
     48 H16          3.3950     1.3050     2.0990 hc         1 UNL       0.048700
     49 H17         -0.3110     1.0670     2.0930 hc         1 UNL       0.037033
     50 H18          1.2230     0.4350     2.6510 hc         1 UNL       0.037033
     51 H19          1.0990     2.0970     2.0900 hc         1 UNL       0.037033
     52 H20          0.2390    -0.5270    -2.1670 hc         1 UNL       0.036033
     53 H21          1.7710    -1.2670    -1.7000 hc         1 UNL       0.036033
     54 H22          0.2890    -2.1950    -1.6140 hc         1 UNL       0.036033
     55 H23         -7.0320     0.0210    -1.3340 h1         1 UNL       0.069700
     56 H24         -5.6170     1.7180    -2.4280 hc         1 UNL       0.051200
     57 H25         -4.9570     0.1070    -2.6420 hc         1 UNL       0.051200
     58 H26         -3.1360     2.3790     1.1810 hc         1 UNL       0.037033
     59 H27         -4.6140     1.4950     1.4050 hc         1 UNL       0.037033
     60 H28         -3.1190     0.8740     2.0890 hc         1 UNL       0.037033
     61 H29         -7.0230    -2.2630    -0.8400 hc         1 UNL       0.037200
     62 H30         -5.5280    -3.0720    -0.3710 hc         1 UNL       0.037200
     63 H31         -5.5990    -2.1500    -1.8780 hc         1 UNL       0.037200
     64 H32         -7.1690    -0.9700     1.3210 hc         1 UNL       0.037200
     65 H33         -5.7360    -0.2140     2.0170 hc         1 UNL       0.037200
     66 H34         -5.8040    -1.9630     1.8170 hc         1 UNL       0.037200
     67 H35          5.2160    -0.1330     1.3320 hc         1 UNL       0.040700
     68 H36          5.6840     1.5460     1.4240 hc         1 UNL       0.040700
     69 H37          3.2690     2.6660    -0.6450 hc         1 UNL       0.034033
     70 H38          2.5450     3.1860     0.9040 hc         1 UNL       0.034033
     71 H39          4.2580     3.2970     0.6690 hc         1 UNL       0.034033
     72 H40         -6.8860     2.1010    -0.5390 ho         1 UNL       0.399000
     73 H41          5.4350     1.7600    -1.0830 hc         1 UNL       0.048200
     74 H42          4.9930     0.0720    -1.1820 hc         1 UNL       0.048200
     75 H43          7.6890     1.3000    -0.7350 ha         1 UNL       0.122000
     76 H44          9.5980     0.0320    -0.8560 hc         1 UNL       0.040033
     77 H45          9.4790    -1.4580     0.0870 hc         1 UNL       0.040033
     78 H46          9.3510    -1.5090    -1.6850 hc         1 UNL       0.040033
     79 H47          7.1880    -2.6600     0.2730 hc         1 UNL       0.040033
     80 H48          5.7700    -1.9610    -0.5080 hc         1 UNL       0.040033
     81 H49          7.0360    -2.6930    -1.4970 hc         1 UNL       0.040033
@<TRIPOS>BOND
     1     1    20 1   
     2     1    72 1   
     3     2     3 1   
     4     2     4 1   
     5     2    10 1   
     6     2    18 1   
     7     3     6 1   
     8     3     9 1   
     9     3    19 1   
    10     4    11 1   
    11     4    17 1   
    12     4    32 1   
    13     5     7 1   
    14     5     8 1   
    15     5    16 1   
    16     5    22 1   
    17     6     8 2   
    18     6    14 1   
    19     7    13 1   
    20     7    15 1   
    21     7    33 1   
    22     8    12 1   
    23     9    11 1   
    24     9    34 1   
    25     9    35 1   
    26    10    12 1   
    27    10    36 1   
    28    10    37 1   
    29    11    38 1   
    30    11    39 1   
    31    12    40 1   
    32    12    41 1   
    33    13    20 1   
    34    13    23 1   
    35    13    24 1   
    36    14    15 1   
    37    14    42 1   
    38    14    43 1   
    39    15    44 1   
    40    15    45 1   
    41    16    21 1   
    42    16    46 1   
    43    16    47 1   
    44    17    25 1   
    45    17    26 1   
    46    17    48 1   
    47    18    49 1   
    48    18    50 1   
    49    18    51 1   
    50    19    52 1   
    51    19    53 1   
    52    19    54 1   
    53    20    21 1   
    54    20    55 1   
    55    21    56 1   
    56    21    57 1   
    57    22    58 1   
    58    22    59 1   
    59    22    60 1   
    60    23    61 1   
    61    23    62 1   
    62    23    63 1   
    63    24    64 1   
    64    24    65 1   
    65    24    66 1   
    66    25    27 1   
    67    25    67 1   
    68    25    68 1   
    69    26    69 1   
    70    26    70 1   
    71    26    71 1   
    72    27    28 1   
    73    27    73 1   
    74    27    74 1   
    75    28    29 2   
    76    28    75 1   
    77    29    30 1   
    78    29    31 1   
    79    30    76 1   
    80    30    77 1   
    81    30    78 1   
    82    31    79 1   
    83    31    80 1   
    84    31    81 1   
@<TRIPOS>SUBSTRUCTURE
     1 UNL         1 TEMP              0 ****  ****    0 ROOT
