@<TRIPOS>MOLECULE
2662
 40 42 0 0 0
SMALL
GASTEIGER

@<TRIPOS>ATOM
      1 S           4.7676   -1.6195   -0.0537 S.O2    1  UNL1        0.0559
      2 F          -5.4770   -1.1414    0.0590 F       1  UNL1       -0.1644
      3 F          -4.4403   -2.7198   -1.0181 F       1  UNL1       -0.1644
      4 F          -4.3905   -2.6771    1.1609 F       1  UNL1       -0.1644
      5 O           5.0701   -2.5060   -1.1686 O.2     1  UNL1       -0.1533
      6 O           5.4593   -0.3433    0.0640 O.2     1  UNL1       -0.1533
      7 N          -1.0637   -0.6091    0.0008 N.ar    1  UNL1       -0.2316
      8 N          -1.9146   -1.6491    0.0232 N.ar    1  UNL1       -0.1618
      9 N           4.9611   -2.4846    1.4068 N.3     1  UNL1       -0.2035
     10 C          -1.6790    0.6098   -0.0069 C.ar    1  UNL1        0.0752
     11 C           0.3119   -0.8476   -0.0119 C.ar    1  UNL1        0.0661
     12 C          -0.9888    1.8763   -0.0300 C.ar    1  UNL1        0.0005
     13 C          -3.0284    0.3453    0.0113 C.ar    1  UNL1       -0.0039
     14 C          -3.1133   -1.0599    0.0295 C.ar    1  UNL1        0.1662
     15 C           1.1712    0.0736    0.5713 C.ar    1  UNL1       -0.0344
     16 C           0.8004   -2.0021   -0.6081 C.ar    1  UNL1       -0.0344
     17 C           3.0473   -1.3212   -0.0383 C.ar    1  UNL1        0.1051
     18 C          -0.6418    2.5033    1.1667 C.ar    1  UNL1       -0.0523
     19 C          -0.6685    2.4740   -1.2489 C.ar    1  UNL1       -0.0523
     20 C           2.5455   -0.1643    0.5581 C.ar    1  UNL1       -0.0334
     21 C           2.1748   -2.2401   -0.6213 C.ar    1  UNL1       -0.0334
     22 C           0.3461    4.3255   -0.0744 C.ar    1  UNL1       -0.0504
     23 C           0.0257    3.7278    1.1445 C.ar    1  UNL1       -0.0582
     24 C          -0.0009    3.6985   -1.2711 C.ar    1  UNL1       -0.0582
     25 C          -4.3333   -1.8842    0.0544 C.3     1  UNL1        0.4360
     26 C           1.0591    5.6351   -0.0989 C.3     1  UNL1       -0.0397
     27 H          -3.8340    1.0660    0.0117 H       1  UNL1        0.0660
     28 H           0.8822    0.8828    1.2086 H       1  UNL1        0.0639
     29 H           0.1471   -2.7316   -1.0796 H       1  UNL1        0.0639
     30 H          -0.9005    2.0620    2.1271 H       1  UNL1        0.0624
     31 H          -0.9308    1.9975   -2.1906 H       1  UNL1        0.0624
     32 H           3.2049    0.5406    1.0571 H       1  UNL1        0.0638
     33 H           2.5435   -3.1494   -1.0875 H       1  UNL1        0.0638
     34 H           0.2889    4.2074    2.0836 H       1  UNL1        0.0620
     35 H           0.2451    4.1532   -2.2271 H       1  UNL1        0.0620
     36 H           0.7762    6.2224   -0.9791 H       1  UNL1        0.0278
     37 H           0.8101    6.2376    0.7813 H       1  UNL1        0.0278
     38 H           2.1414    5.4730   -0.1181 H       1  UNL1        0.0278
     39 H           5.1724   -3.4879    1.3423 H       1  UNL1        0.1442
     40 H           5.4364   -2.0089    2.1834 H       1  UNL1        0.1442
@<TRIPOS>BOND
     1     1     5    2
     2     1     6    2
     3     1     9    1
     4     1    17    1
     5     2    25    1
     6     3    25    1
     7     4    25    1
     8     7     8   ar
     9     7    10   ar
    10     7    11    1
    11     8    14   ar
    12     9    39    1
    13     9    40    1
    14    10    12    1
    15    10    13   ar
    16    11    15   ar
    17    11    16   ar
    18    12    18   ar
    19    12    19   ar
    20    13    14   ar
    21    13    27    1
    22    14    25    1
    23    15    20   ar
    24    15    28    1
    25    16    21   ar
    26    16    29    1
    27    17    20   ar
    28    17    21   ar
    29    18    23   ar
    30    18    30    1
    31    19    24   ar
    32    19    31    1
    33    20    32    1
    34    21    33    1
    35    22    23   ar
    36    22    24   ar
    37    22    26    1
    38    23    34    1
    39    24    35    1
    40    26    36    1
    41    26    37    1
    42    26    38    1
