@<TRIPOS>MOLECULE
2662
   40    42     1     0     0
SMALL
bcc


@<TRIPOS>ATOM
      1 S            4.7680    -1.6190    -0.0540 sy         1 UNL       1.527200
      2 F           -5.4770    -1.1410     0.0590 f          1 UNL      -0.229300
      3 F1          -4.4400    -2.7200    -1.0180 f          1 UNL      -0.229300
      4 F2          -4.3910    -2.6770     1.1610 f          1 UNL      -0.229300
      5 O            5.0700    -2.5060    -1.1690 o          1 UNL      -0.655800
      6 O1           5.4590    -0.3430     0.0640 o          1 UNL      -0.655800
      7 N           -1.0640    -0.6090     0.0010 na         1 UNL       0.162300
      8 N1          -1.9150    -1.6490     0.0230 nc         1 UNL      -0.440800
      9 N2           4.9610    -2.4850     1.4070 n8         1 UNL      -1.026700
     10 C           -1.6790     0.6100    -0.0070 cc         1 UNL      -0.029300
     11 C1           0.3120    -0.8480    -0.0120 ca         1 UNL       0.073800
     12 C2          -0.9890     1.8760    -0.0300 ca         1 UNL      -0.058000
     13 C3          -3.0280     0.3450     0.0110 cd         1 UNL      -0.231300
     14 C4          -3.1130    -1.0600     0.0290 cd         1 UNL       0.215600
     15 C5           1.1710     0.0740     0.5710 ca         1 UNL      -0.149500
     16 C6           0.8000    -2.0020    -0.6080 ca         1 UNL      -0.149500
     17 C7           3.0470    -1.3210    -0.0380 ca         1 UNL      -0.379500
     18 C8          -0.6420     2.5030     1.1670 ca         1 UNL      -0.098500
     19 C9          -0.6680     2.4740    -1.2490 ca         1 UNL      -0.098500
     20 C10          2.5460    -0.1640     0.5580 ca         1 UNL      -0.011000
     21 C11          2.1750    -2.2400    -0.6210 ca         1 UNL      -0.011000
     22 C12          0.3460     4.3250    -0.0740 ca         1 UNL      -0.054300
     23 C13          0.0260     3.7280     1.1450 ca         1 UNL      -0.134500
     24 C14         -0.0010     3.6990    -1.2710 ca         1 UNL      -0.134500
     25 C15         -4.3330    -1.8840     0.0540 c3         1 UNL       0.632600
     26 C16          1.0590     5.6350    -0.0990 c3         1 UNL      -0.060800
     27 H           -3.8340     1.0660     0.0120 ha         1 UNL       0.188000
     28 H1           0.8820     0.8830     1.2090 ha         1 UNL       0.164000
     29 H2           0.1470    -2.7320    -1.0800 ha         1 UNL       0.164000
     30 H3          -0.9000     2.0620     2.1270 ha         1 UNL       0.142500
     31 H4          -0.9310     1.9980    -2.1910 ha         1 UNL       0.142500
     32 H5           3.2050     0.5410     1.0570 ha         1 UNL       0.160500
     33 H6           2.5430    -3.1490    -1.0870 ha         1 UNL       0.160500
     34 H7           0.2890     4.2070     2.0840 ha         1 UNL       0.140500
     35 H8           0.2450     4.1530    -2.2270 ha         1 UNL       0.140500
     36 H9           0.7760     6.2220    -0.9790 hc         1 UNL       0.050700
     37 H10          0.8100     6.2380     0.7810 hc         1 UNL       0.050700
     38 H11          2.1410     5.4730    -0.1180 hc         1 UNL       0.050700
     39 H12          5.1720    -3.4880     1.3420 hn         1 UNL       0.449800
     40 H13          5.4360    -2.0090     2.1830 hn         1 UNL       0.449800
@<TRIPOS>BOND
     1     1     5 2   
     2     1     6 2   
     3     1     9 1   
     4     1    17 1   
     5     2    25 1   
     6     3    25 1   
     7     4    25 1   
     8     7     8 1   
     9     7    10 1   
    10     7    11 1   
    11     8    14 2   
    12     9    39 1   
    13     9    40 1   
    14    10    12 1   
    15    10    13 2   
    16    11    15 ar  
    17    11    16 ar  
    18    12    18 ar  
    19    12    19 ar  
    20    13    14 1   
    21    13    27 1   
    22    14    25 1   
    23    15    20 ar  
    24    15    28 1   
    25    16    21 ar  
    26    16    29 1   
    27    17    20 ar  
    28    17    21 ar  
    29    18    23 ar  
    30    18    30 1   
    31    19    24 ar  
    32    19    31 1   
    33    20    32 1   
    34    21    33 1   
    35    22    23 ar  
    36    22    24 ar  
    37    22    26 1   
    38    23    34 1   
    39    24    35 1   
    40    26    36 1   
    41    26    37 1   
    42    26    38 1   
@<TRIPOS>SUBSTRUCTURE
     1 UNL         1 TEMP              0 ****  ****    0 ROOT
