@<TRIPOS>MOLECULE
5951
   14    13     1     0     0
SMALL
bcc


@<TRIPOS>ATOM
      1 OG           1.9160     1.0310    -0.2060 oh         1 SER      -0.593800
      2 O           -0.9150     1.4730     0.6930 oh         1 SER      -0.610100
      3 OXT         -1.6880     0.0440    -0.8960 o          1 SER      -0.549000
      4 N           -0.1780    -1.9610     0.3150 n8         1 SER      -0.890800
      5 CA           0.2500    -0.5720     0.4670 c3         1 SER       0.093500
      6 CB           1.5040    -0.3230    -0.3650 c3         1 SER       0.138400
      7 C           -0.8900     0.3090    -0.0070 c          1 SER       0.594100
      8 HA           0.4350    -0.3710     1.5280 h1         1 SER       0.088700
      9 HB1          2.3290    -0.9740    -0.0560 h1         1 SER       0.063200
     10 HB2          1.3200    -0.4860    -1.4330 h1         1 SER       0.063200
     11 H1          -0.3830    -2.1610    -0.6640 hn         1 SER       0.368300
     12 H2          -1.0420    -2.1180     0.8320 hn         1 SER       0.368300
     13 H            2.1020     1.1710     0.7380 ho         1 SER       0.414000
     14 H3          -1.6430     2.0610     0.3990 ho         1 SER       0.450000
@<TRIPOS>BOND
     1     1     6 1   
     2     1    13 1   
     3     2     7 1   
     4     2    14 1   
     5     3     7 2   
     6     4     5 1   
     7     4    11 1   
     8     4    12 1   
     9     5     6 1   
    10     5     7 1   
    11     5     8 1   
    12     6     9 1   
    13     6    10 1   
@<TRIPOS>SUBSTRUCTURE
     1 SER         1 TEMP              0 ****  ****    0 ROOT
