@<TRIPOS>MOLECULE
1983
   20    20     1     0     0
SMALL
bcc


@<TRIPOS>ATOM
      1 O            3.8510     0.4520     0.0010 oh         1 UNL      -0.499100
      2 O1          -2.6000     1.4040    -0.0020 o          1 UNL      -0.593100
      3 N           -1.5710    -0.7170     0.0000 ns         1 UNL      -0.472100
      4 C           -0.2070    -0.4230    -0.0000 ca         1 UNL       0.035600
      5 C1           0.2210     0.9050     0.0000 ca         1 UNL      -0.134500
      6 C2           0.7300    -1.4570    -0.0010 ca         1 UNL      -0.134500
      7 C3           1.5840     1.1990     0.0000 ca         1 UNL      -0.158000
      8 C4           2.0930    -1.1630    -0.0010 ca         1 UNL      -0.158000
      9 C5           2.5200     0.1650    -0.0000 ca         1 UNL       0.096100
     10 C6          -2.6480     0.1780     0.0010 c          1 UNL       0.665100
     11 C7          -3.9740    -0.5420     0.0010 c3         1 UNL      -0.178100
     12 H           -0.4440     1.7580     0.0010 ha         1 UNL       0.153000
     13 H1           0.4110    -2.4960    -0.0010 ha         1 UNL       0.153000
     14 H2          -1.8010    -1.7090     0.0000 hn         1 UNL       0.313500
     15 H3           1.9050     2.2370     0.0010 ha         1 UNL       0.143500
     16 H4           2.8180    -1.9730    -0.0010 ha         1 UNL       0.143500
     17 H5          -4.0660    -1.1460    -0.9060 hc         1 UNL       0.068367
     18 H6          -4.7900     0.1840     0.0290 hc         1 UNL       0.068367
     19 H7          -4.0450    -1.1890     0.8800 hc         1 UNL       0.068367
     20 H8           3.9650     1.4180     0.0020 ho         1 UNL       0.418000
@<TRIPOS>BOND
     1     1     9 1   
     2     1    20 1   
     3     2    10 2   
     4     3     4 1   
     5     3    10 1   
     6     3    14 1   
     7     4     5 ar  
     8     4     6 ar  
     9     5     7 ar  
    10     5    12 1   
    11     6     8 ar  
    12     6    13 1   
    13     7     9 ar  
    14     7    15 1   
    15     8     9 ar  
    16     8    16 1   
    17    10    11 1   
    18    11    17 1   
    19    11    18 1   
    20    11    19 1   
@<TRIPOS>SUBSTRUCTURE
     1 UNL         1 TEMP              0 ****  ****    0 ROOT
