@<TRIPOS>MOLECULE
60961
   32    34     1     0     0
SMALL
bcc


@<TRIPOS>ATOM
      1 O4*          2.0000    -0.5200    -0.9520 os         1 A1       -0.412600
      2 O2*          1.2080     2.2650     1.1770 oh         1 A1       -0.562800
      3 O3*          3.4010     2.1350    -0.4230 oh         1 A1       -0.586800
      4 O5*          3.7890    -2.6030    -0.3840 oh         1 A1       -0.588800
      5 N9          -0.2130    -0.2590    -0.1380 na         1 A1       -0.284000
      6 N7          -1.6400    -1.8910     0.3910 nc         1 A1       -0.532100
      7 N3          -1.7850     1.5470    -0.5510 nb         1 A1       -0.734000
      8 N1          -4.0890     0.8120    -0.2210 nb         1 A1       -0.795000
      9 N6          -4.6440    -1.4230     0.4290 nv         1 A1       -0.960500
     10 C2*          1.7170     0.9880     0.8520 c5         1 A1        0.130100
     11 C1*          1.0580     0.4150    -0.3940 c5         1 A1        0.210800
     12 C3*          3.1740     1.0170     0.4350 c5         1 A1        0.080100
     13 C4*          3.3040    -0.2640    -0.3830 c5         1 A1        0.047100
     14 C5*          3.7050    -1.4670     0.4590 c3         1 A1        0.118400
     15 C4          -1.4640     0.2870    -0.2200 ca         1 A1        0.477800
     16 C8          -0.3730    -1.5690     0.2320 cd         1 A1        0.394700
     17 C5          -2.3330    -0.7400     0.1120 ca         1 A1       -0.240200
     18 C6          -3.6920    -0.4420     0.1040 ca         1 A1        0.767200
     19 C2          -3.1250     1.7150    -0.5240 ca         1 A1        0.691900
     20 H2*          1.5810     0.3260     1.7150 h1         1 A1        0.101700
     21 H1*          0.8620     1.1830    -1.1520 h2         1 A1        0.135700
     22 H3*          3.8660     1.0960     1.2780 h1         1 A1        0.060700
     23 H4*          3.9970    -0.1520    -1.2250 h1         1 A1        0.095700
     24 H5*1         2.9710    -1.6860     1.2400 h1         1 A1        0.050200
     25 H5*2         4.6820    -1.3130     0.9270 h1         1 A1        0.050200
     26 H7           1.3810     2.8580     0.4260 ho         1 A1        0.427000
     27 H9           4.3300     2.0980    -0.7090 ho         1 A1        0.419000
     28 H8           0.4630    -2.2410     0.3770 h5         1 A1        0.066800
     29 H5*          2.9170    -2.7280    -0.7950 ho         1 A1        0.419000
     30 H2          -3.4790     2.7080    -0.7800 h5         1 A1        0.054100
     31 H61         -4.3500    -2.3600     0.6730 hn         1 A1        0.450800
     32 H62         -5.6250    -1.1820     0.4170 hn         1 A1        0.450800
@<TRIPOS>BOND
     1     1    11 1   
     2     1    13 1   
     3     2    10 1   
     4     2    26 1   
     5     3    12 1   
     6     3    27 1   
     7     4    14 1   
     8     4    29 1   
     9     5    11 1   
    10     5    15 1   
    11     5    16 1   
    12     6    16 2   
    13     6    17 1   
    14     7    15 ar  
    15     7    19 ar  
    16     8    18 ar  
    17     8    19 ar  
    18     9    18 1   
    19     9    31 1   
    20     9    32 1   
    21    10    11 1   
    22    10    12 1   
    23    10    20 1   
    24    11    21 1   
    25    12    13 1   
    26    12    22 1   
    27    13    14 1   
    28    13    23 1   
    29    14    24 1   
    30    14    25 1   
    31    15    17 ar  
    32    16    28 1   
    33    17    18 ar  
    34    19    30 1   
@<TRIPOS>SUBSTRUCTURE
     1 A1          1 TEMP              0 ****  ****    0 ROOT
