@<TRIPOS>MOLECULE
4946
   40    41     1     0     0
SMALL
bcc


@<TRIPOS>ATOM
      1 O            0.3580     1.4560     0.6930 os         1 UNL      -0.346900
      2 O1           2.7840     2.1030     1.9560 oh         1 UNL      -0.593800
      3 N            3.0010    -0.4290    -0.7360 n7         1 UNL      -0.823200
      4 C            2.7510     1.6410     0.6030 c3         1 UNL       0.144100
      5 C1           2.9580     0.1240     0.6110 c3         1 UNL       0.125800
      6 C2           3.2560    -1.8630    -0.7020 c3         1 UNL       0.176500
      7 C3           1.4260     2.0650    -0.0260 c3         1 UNL       0.096400
      8 C4           3.2870    -2.4290    -2.1190 c3         1 UNL      -0.095100
      9 C5           2.1840    -2.5500     0.1390 c3         1 UNL      -0.095100
     10 C6          -0.7850     1.1880    -0.0060 ca         1 UNL       0.149100
     11 C7          -1.6140     0.1070     0.3360 ca         1 UNL      -0.054000
     12 C8          -2.7870    -0.1300    -0.4190 ca         1 UNL      -0.011000
     13 C9          -1.1080     2.0230    -1.0760 ca         1 UNL      -0.216000
     14 C10         -1.3040    -0.7440     1.4090 ca         1 UNL      -0.095000
     15 C11         -3.0970     0.7210    -1.4930 ca         1 UNL      -0.153000
     16 C12         -2.2620     1.7900    -1.8180 ca         1 UNL      -0.091000
     17 C13         -3.6160    -1.2110    -0.0780 ca         1 UNL      -0.128000
     18 C14         -2.1390    -1.8130     1.7340 ca         1 UNL      -0.140000
     19 C15         -3.2930    -2.0460     0.9910 ca         1 UNL      -0.117000
     20 H            3.5800     2.1250     0.0740 h1         1 UNL       0.079700
     21 H1           2.1550    -0.3050     1.2180 h1         1 UNL       0.045700
     22 H2           3.8940    -0.0930     1.1430 h1         1 UNL       0.045700
     23 H3           4.2370    -2.0560    -0.2490 h1         1 UNL       0.019700
     24 H4           3.7260     0.0380    -1.2800 hn         1 UNL       0.357800
     25 H5           1.4380     1.7760    -1.0850 h1         1 UNL       0.060200
     26 H6           1.3150     3.1530     0.0540 h1         1 UNL       0.060200
     27 H7           3.5020    -3.5030    -2.1040 hc         1 UNL       0.039700
     28 H8           2.3270    -2.2850    -2.6280 hc         1 UNL       0.039700
     29 H9           4.0650    -1.9440    -2.7190 hc         1 UNL       0.039700
     30 H10          2.3200    -2.3860     1.2130 hc         1 UNL       0.039700
     31 H11          2.2290    -3.6360    -0.0050 hc         1 UNL       0.039700
     32 H12          1.1740    -2.2320    -0.1450 hc         1 UNL       0.039700
     33 H13          2.6880     3.0700     1.9380 ho         1 UNL       0.414000
     34 H14         -0.5120     2.8890    -1.3480 ha         1 UNL       0.140000
     35 H15         -0.4100    -0.5900     2.0090 ha         1 UNL       0.141000
     36 H16         -3.9950     0.5580    -2.0860 ha         1 UNL       0.134000
     37 H17         -2.5180     2.4450    -2.6460 ha         1 UNL       0.133000
     38 H18         -4.5230    -1.4130    -0.6450 ha         1 UNL       0.134000
     39 H19         -1.8880    -2.4640     2.5660 ha         1 UNL       0.133000
     40 H20         -3.9430    -2.8790     1.2450 ha         1 UNL       0.132000
@<TRIPOS>BOND
     1     1     7 1   
     2     1    10 1   
     3     2     4 1   
     4     2    33 1   
     5     3     5 1   
     6     3     6 1   
     7     3    24 1   
     8     4     5 1   
     9     4     7 1   
    10     4    20 1   
    11     5    21 1   
    12     5    22 1   
    13     6     8 1   
    14     6     9 1   
    15     6    23 1   
    16     7    25 1   
    17     7    26 1   
    18     8    27 1   
    19     8    28 1   
    20     8    29 1   
    21     9    30 1   
    22     9    31 1   
    23     9    32 1   
    24    10    11 ar  
    25    10    13 ar  
    26    11    12 ar  
    27    11    14 ar  
    28    12    15 ar  
    29    12    17 ar  
    30    13    16 ar  
    31    13    34 1   
    32    14    18 ar  
    33    14    35 1   
    34    15    16 ar  
    35    15    36 1   
    36    16    37 1   
    37    17    19 ar  
    38    17    38 1   
    39    18    19 ar  
    40    18    39 1   
    41    19    40 1   
@<TRIPOS>SUBSTRUCTURE
     1 UNL         1 TEMP              0 ****  ****    0 ROOT
