@<TRIPOS>MOLECULE
5988
   45    46     1     0     0
SMALL
bcc


@<TRIPOS>ATOM
      1 O           -1.4680     0.4390    -0.9180 os         1 UNL      -0.424600
      2 O1          -0.6030    -0.8920     0.8120 os         1 UNL      -0.420600
      3 O2           0.9280     0.4830    -0.3050 os         1 UNL      -0.434600
      4 O3          -3.0700    -2.0050     1.1930 oh         1 UNL      -0.569800
      5 O4          -4.6200     0.6320     0.7330 oh         1 UNL      -0.592800
      6 O5           1.2230     0.2160     2.5660 oh         1 UNL      -0.602800
      7 O6           3.6110    -1.7290     0.6380 oh         1 UNL      -0.601800
      8 O7           3.1500     1.8350     1.1540 oh         1 UNL      -0.588800
      9 O8          -1.9580    -1.8480    -2.4300 oh         1 UNL      -0.587800
     10 O9          -1.3850     3.2450    -0.8930 oh         1 UNL      -0.600800
     11 O10          3.8370     0.2060    -2.5040 oh         1 UNL      -0.591800
     12 C           -1.4950    -0.8630    -0.3040 c5         1 UNL       0.311600
     13 C1          -2.9300    -1.0230     0.1870 c5         1 UNL       0.132100
     14 C2          -3.2290     0.3740     0.6890 c5         1 UNL       0.080100
     15 C3          -2.5500     1.2240    -0.3790 c5         1 UNL       0.069100
     16 C4           0.7530    -0.7450     0.3970 c6         1 UNL       0.304900
     17 C5           1.6460    -0.7850     1.6390 c6         1 UNL       0.132100
     18 C6           3.1150    -0.5550     1.2750 c6         1 UNL       0.105100
     19 C7           3.2920     0.6580     0.3520 c6         1 UNL       0.094100
     20 C8           2.2580     0.7200    -0.7860 c6         1 UNL       0.080100
     21 C9          -1.0900    -1.9270    -1.3120 c3         1 UNL       0.124400
     22 C10         -2.0030     2.5320     0.1650 c3         1 UNL       0.126400
     23 C11          2.5890    -0.1900    -1.9670 c3         1 UNL       0.092400
     24 H           -3.6220    -1.2730    -0.6270 h1         1 UNL       0.095700
     25 H1          -2.8150     0.5300     1.6920 h1         1 UNL       0.066700
     26 H2          -3.2290     1.4360    -1.2150 h1         1 UNL       0.086700
     27 H3           1.0590    -1.5990    -0.2110 h2         1 UNL       0.063700
     28 H4           1.5260    -1.7530     2.1410 h1         1 UNL       0.075700
     29 H5           3.6910    -0.4030     2.1960 h1         1 UNL       0.076700
     30 H6           4.3100     0.6750    -0.0510 h1         1 UNL       0.093700
     31 H7           2.2440     1.7500    -1.1640 h1         1 UNL       0.091700
     32 H8          -1.1310    -2.9320    -0.8800 h1         1 UNL       0.068700
     33 H9          -0.1000    -1.7690    -1.7400 h1         1 UNL       0.068700
     34 H10         -1.2450     2.3610     0.9370 h1         1 UNL       0.049200
     35 H11         -2.7990     3.1540     0.5840 h1         1 UNL       0.049200
     36 H12          1.8210    -0.1130    -2.7440 h1         1 UNL       0.062700
     37 H13          2.6530    -1.2450    -1.6890 h1         1 UNL       0.062700
     38 H14         -3.9800    -1.9480     1.5320 ho         1 UNL       0.412000
     39 H15         -4.7360     1.5660     0.9750 ho         1 UNL       0.410000
     40 H16          0.2790     0.0670     2.7430 ho         1 UNL       0.433000
     41 H17          4.5490    -1.5770     0.4330 ho         1 UNL       0.417000
     42 H18          3.3430     2.6010     0.5870 ho         1 UNL       0.428000
     43 H19         -1.6960    -2.5510    -3.0490 ho         1 UNL       0.418000
     44 H20         -0.6790     2.6810    -1.2540 ho         1 UNL       0.429000
     45 H21          3.7490     1.1230    -2.8130 ho         1 UNL       0.403000
@<TRIPOS>BOND
     1     1    12 1   
     2     1    15 1   
     3     2    12 1   
     4     2    16 1   
     5     3    16 1   
     6     3    20 1   
     7     4    13 1   
     8     4    38 1   
     9     5    14 1   
    10     5    39 1   
    11     6    17 1   
    12     6    40 1   
    13     7    18 1   
    14     7    41 1   
    15     8    19 1   
    16     8    42 1   
    17     9    21 1   
    18     9    43 1   
    19    10    22 1   
    20    10    44 1   
    21    11    23 1   
    22    11    45 1   
    23    12    13 1   
    24    12    21 1   
    25    13    14 1   
    26    13    24 1   
    27    14    15 1   
    28    14    25 1   
    29    15    22 1   
    30    15    26 1   
    31    16    17 1   
    32    16    27 1   
    33    17    18 1   
    34    17    28 1   
    35    18    19 1   
    36    18    29 1   
    37    19    20 1   
    38    19    30 1   
    39    20    23 1   
    40    20    31 1   
    41    21    32 1   
    42    21    33 1   
    43    22    34 1   
    44    22    35 1   
    45    23    36 1   
    46    23    37 1   
@<TRIPOS>SUBSTRUCTURE
     1 UNL         1 TEMP              0 ****  ****    0 ROOT
