@<TRIPOS>MOLECULE
597
   13    13     1     0     0
SMALL
bcc


@<TRIPOS>ATOM
      1 O            2.2130     1.1190     0.0000 o          1 UNL      -0.607500
      2 N           -0.0590     0.9820     0.0000 ns         1 UNL      -0.496100
      3 N1          -2.4420     0.9210     0.0000 nv         1 UNL      -0.864600
      4 N2           1.2940    -0.9740     0.0000 nc         1 UNL      -0.651100
      5 C           -1.2410     0.2680    -0.0000 cc         1 UNL       0.334600
      6 C1          -1.1640    -1.0730    -0.0000 cd         1 UNL      -0.489600
      7 C2           1.2090     0.4060    -0.0000 c          1 UNL       0.821900
      8 C3           0.1910    -1.6480     0.0000 cd         1 UNL       0.568500
      9 H           -0.1330     1.9950     0.0000 hn         1 UNL       0.332500
     10 H1          -2.0220    -1.7320    -0.0000 ha         1 UNL       0.155000
     11 H2           0.2350    -2.7490     0.0010 h4         1 UNL       0.035800
     12 H3          -3.3090     0.3980     0.0000 hn         1 UNL       0.429800
     13 H4          -2.4530     1.9330     0.0010 hn         1 UNL       0.429800
@<TRIPOS>BOND
     1     1     7 2   
     2     2     5 1   
     3     2     7 1   
     4     2     9 1   
     5     3     5 1   
     6     3    12 1   
     7     3    13 1   
     8     4     7 1   
     9     4     8 2   
    10     5     6 2   
    11     6     8 1   
    12     6    10 1   
    13     8    11 1   
@<TRIPOS>SUBSTRUCTURE
     1 UNL         1 TEMP              0 ****  ****    0 ROOT
