@<TRIPOS>MOLECULE
439423
   72    75     1     0     0
SMALL
bcc


@<TRIPOS>ATOM
      1 O            7.5890    -1.2920    -0.6310 oh         1 UNL      -0.601800
      2 C           -0.8020     0.7120     0.6300 c5         1 UNL      -0.042000
      3 C1          -0.1270     0.7320    -0.7560 c5         1 UNL      -0.033500
      4 C2          -2.2880     0.7610     0.1990 c5         1 UNL      -0.053700
      5 C3           1.9480    -0.4420     0.1900 c6         1 UNL      -0.015500
      6 C4          -0.3950    -0.5990     1.3230 c6         1 UNL      -0.067400
      7 C5          -0.8630     1.8560    -1.4910 c5         1 UNL      -0.072400
      8 C6           1.3760     0.6820    -0.6810 c2         1 UNL      -0.080400
      9 C7          -2.3050     1.7800    -0.9620 c5         1 UNL      -0.078400
     10 C8           3.5180    -0.3320     0.4560 c6         1 UNL       0.003200
     11 C9           1.1290    -0.6860     1.4940 c6         1 UNL      -0.073400
     12 C10         -3.2990     1.0870     1.2890 c3         1 UNL      -0.054700
     13 C11         -0.4250     1.9300     1.5090 c3         1 UNL      -0.082100
     14 C12          4.2450     0.3970    -0.6820 c2         1 UNL      -0.105400
     15 C13          4.0710    -1.7810     0.6010 c6         1 UNL      -0.067400
     16 C14          2.1760     1.4490    -1.4360 ce         1 UNL      -0.146000
     17 C15          3.8290     0.4680     1.7460 c3         1 UNL      -0.086100
     18 C16         -4.7540     1.0880     0.7750 c3         1 UNL      -0.076400
     19 C17          3.5930     1.2180    -1.5210 ce         1 UNL      -0.132000
     20 C18          5.7410     0.2220    -0.7940 c6         1 UNL      -0.038200
     21 C19          5.5950    -1.8760     0.5880 c6         1 UNL      -0.113400
     22 C20         -3.1710     0.0820     2.4410 c3         1 UNL      -0.090100
     23 C21          6.1670    -1.2380    -0.6750 c6         1 UNL       0.145100
     24 C22         -5.2370    -0.2130     0.1210 c3         1 UNL      -0.080400
     25 C23         -6.6620    -0.1250    -0.4350 c3         1 UNL      -0.073400
     26 C24         -7.1730    -1.4530    -1.0270 c3         1 UNL      -0.065700
     27 C25         -7.1360    -2.5990    -0.0160 c3         1 UNL      -0.089100
     28 C26         -6.3390    -1.8250    -2.2560 c3         1 UNL      -0.089100
     29 H           -0.4050    -0.1960    -1.2860 hc         1 UNL       0.054700
     30 H1          -2.5260    -0.2240    -0.2280 hc         1 UNL       0.048700
     31 H2           1.7840    -1.3420    -0.4250 hc         1 UNL       0.052700
     32 H3          -0.7360    -1.4640     0.7390 hc         1 UNL       0.042200
     33 H4          -0.8160    -0.7110     2.3210 hc         1 UNL       0.042200
     34 H5          -0.8290     1.7230    -2.5780 hc         1 UNL       0.044700
     35 H6          -0.4340     2.8400    -1.2650 hc         1 UNL       0.044700
     36 H7          -2.6290     2.7750    -0.6370 hc         1 UNL       0.042700
     37 H8          -2.9920     1.4530    -1.7510 hc         1 UNL       0.042700
     38 H9           1.4050     0.0360     2.2680 hc         1 UNL       0.043700
     39 H10          1.3810    -1.6750     1.8970 hc         1 UNL       0.043700
     40 H11         -3.1130     2.0890     1.6950 hc         1 UNL       0.047700
     41 H12          0.6580     2.0730     1.5760 hc         1 UNL       0.037700
     42 H13         -0.8360     2.8670     1.1180 hc         1 UNL       0.037700
     43 H14         -0.7930     1.8190     2.5330 hc         1 UNL       0.037700
     44 H15          3.6960    -2.4020    -0.2230 hc         1 UNL       0.043700
     45 H16          3.6970    -2.2380     1.5250 hc         1 UNL       0.043700
     46 H17          1.7750     2.2080    -2.0990 ha         1 UNL       0.131000
     47 H18          4.8980     0.6760     1.8630 hc         1 UNL       0.039367
     48 H19          3.3130     1.4350     1.7480 hc         1 UNL       0.039367
     49 H20          3.5310    -0.0820     2.6460 hc         1 UNL       0.039367
     50 H21         -5.4260     1.3350     1.6070 hc         1 UNL       0.038700
     51 H22         -4.8720     1.9050     0.0520 hc         1 UNL       0.038700
     52 H23          4.1230     1.7510    -2.3040 ha         1 UNL       0.128000
     53 H24          6.1210     0.6240    -1.7420 hc         1 UNL       0.062200
     54 H25          6.2360     0.8150    -0.0150 hc         1 UNL       0.062200
     55 H26          6.0230    -1.4050     1.4810 hc         1 UNL       0.047700
     56 H27          5.9000    -2.9290     0.6390 hc         1 UNL       0.047700
     57 H28         -3.0690    -0.9500     2.0900 hc         1 UNL       0.034033
     58 H29         -4.0670     0.1130     3.0740 hc         1 UNL       0.034033
     59 H30         -2.3500     0.3370     3.1130 hc         1 UNL       0.034033
     60 H31          5.8380    -1.7940    -1.5610 h1         1 UNL       0.036700
     61 H32         -4.5640    -0.4750    -0.6990 hc         1 UNL       0.043200
     62 H33         -5.1750    -1.0130     0.8650 hc         1 UNL       0.043200
     63 H34         -6.7100     0.6620    -1.1980 hc         1 UNL       0.037700
     64 H35         -7.3400     0.1820     0.3720 hc         1 UNL       0.037700
     65 H36          7.8440    -2.2280    -0.5600 ho         1 UNL       0.399000
     66 H37         -8.2110    -1.3000    -1.3450 hc         1 UNL       0.041700
     67 H38         -6.1160    -2.9110     0.2270 hc         1 UNL       0.032867
     68 H39         -7.6530    -3.4760    -0.4220 hc         1 UNL       0.032867
     69 H40         -7.6430    -2.3160     0.9120 hc         1 UNL       0.032867
     70 H41         -5.3150    -2.1120    -1.9970 hc         1 UNL       0.032867
     71 H42         -6.7920    -2.6790    -2.7720 hc         1 UNL       0.032867
     72 H43         -6.2960    -0.9960    -2.9700 hc         1 UNL       0.032867
@<TRIPOS>BOND
     1     1    23 1   
     2     1    65 1   
     3     2     3 1   
     4     2     4 1   
     5     2     6 1   
     6     2    13 1   
     7     3     7 1   
     8     3     8 1   
     9     3    29 1   
    10     4     9 1   
    11     4    12 1   
    12     4    30 1   
    13     5     8 1   
    14     5    10 1   
    15     5    11 1   
    16     5    31 1   
    17     6    11 1   
    18     6    32 1   
    19     6    33 1   
    20     7     9 1   
    21     7    34 1   
    22     7    35 1   
    23     8    16 2   
    24     9    36 1   
    25     9    37 1   
    26    10    14 1   
    27    10    15 1   
    28    10    17 1   
    29    11    38 1   
    30    11    39 1   
    31    12    18 1   
    32    12    22 1   
    33    12    40 1   
    34    13    41 1   
    35    13    42 1   
    36    13    43 1   
    37    14    19 2   
    38    14    20 1   
    39    15    21 1   
    40    15    44 1   
    41    15    45 1   
    42    16    19 1   
    43    16    46 1   
    44    17    47 1   
    45    17    48 1   
    46    17    49 1   
    47    18    24 1   
    48    18    50 1   
    49    18    51 1   
    50    19    52 1   
    51    20    23 1   
    52    20    53 1   
    53    20    54 1   
    54    21    23 1   
    55    21    55 1   
    56    21    56 1   
    57    22    57 1   
    58    22    58 1   
    59    22    59 1   
    60    23    60 1   
    61    24    25 1   
    62    24    61 1   
    63    24    62 1   
    64    25    26 1   
    65    25    63 1   
    66    25    64 1   
    67    26    27 1   
    68    26    28 1   
    69    26    66 1   
    70    27    67 1   
    71    27    68 1   
    72    27    69 1   
    73    28    70 1   
    74    28    71 1   
    75    28    72 1   
@<TRIPOS>SUBSTRUCTURE
     1 UNL         1 TEMP              0 ****  ****    0 ROOT
