@<TRIPOS>MOLECULE
439423
 72 75 0 0 0
SMALL
GASTEIGER

@<TRIPOS>ATOM
      1 O           7.5889   -1.2921   -0.6310 O.3     1  UNL1       -0.3915
      2 C          -0.8021    0.7115    0.6299 C.3     1  UNL1       -0.0225
      3 C          -0.1272    0.7318   -0.7558 C.3     1  UNL1       -0.0136
      4 C          -2.2884    0.7606    0.1986 C.3     1  UNL1       -0.0325
      5 C           1.9475   -0.4419    0.1896 C.3     1  UNL1       -0.0102
      6 C          -0.3950   -0.5994    1.3235 C.3     1  UNL1       -0.0463
      7 C          -0.8625    1.8563   -1.4910 C.3     1  UNL1       -0.0457
      8 C           1.3764    0.6816   -0.6809 C.2     1  UNL1       -0.0620
      9 C          -2.3055    1.7800   -0.9619 C.3     1  UNL1       -0.0489
     10 C           3.5178   -0.3322    0.4563 C.3     1  UNL1       -0.0041
     11 C           1.1295   -0.6864    1.4940 C.3     1  UNL1       -0.0452
     12 C          -3.2987    1.0870    1.2893 C.3     1  UNL1       -0.0405
     13 C          -0.4254    1.9301    1.5088 C.3     1  UNL1       -0.0588
     14 C           4.2453    0.3965   -0.6817 C.2     1  UNL1       -0.0607
     15 C           4.0708   -1.7807    0.6014 C.3     1  UNL1       -0.0410
     16 C           2.1764    1.4493   -1.4362 C.2     1  UNL1       -0.0620
     17 C           3.8291    0.4676    1.7463 C.3     1  UNL1       -0.0553
     18 C          -4.7536    1.0882    0.7750 C.3     1  UNL1       -0.0502
     19 C           3.5931    1.2179   -1.5206 C.2     1  UNL1       -0.0619
     20 C           5.7408    0.2217   -0.7943 C.3     1  UNL1       -0.0048
     21 C           5.5946   -1.8761    0.5877 C.3     1  UNL1       -0.0258
     22 C          -3.1714    0.0820    2.4412 C.3     1  UNL1       -0.0621
     23 C           6.1666   -1.2381   -0.6746 C.3     1  UNL1        0.0590
     24 C          -5.2372   -0.2130    0.1212 C.3     1  UNL1       -0.0526
     25 C          -6.6620   -0.1247   -0.4350 C.3     1  UNL1       -0.0507
     26 C          -7.1725   -1.4527   -1.0274 C.3     1  UNL1       -0.0467
     27 C          -7.1364   -2.5993   -0.0158 C.3     1  UNL1       -0.0627
     28 C          -6.3389   -1.8254   -2.2564 C.3     1  UNL1       -0.0627
     29 H          -0.4054   -0.1955   -1.2857 H       1  UNL1        0.0351
     30 H          -2.5263   -0.2235   -0.2280 H       1  UNL1        0.0309
     31 H           1.7843   -1.3417   -0.4250 H       1  UNL1        0.0354
     32 H          -0.7356   -1.4639    0.7394 H       1  UNL1        0.0271
     33 H          -0.8163   -0.7112    2.3214 H       1  UNL1        0.0271
     34 H          -0.8288    1.7234   -2.5776 H       1  UNL1        0.0271
     35 H          -0.4342    2.8395   -1.2647 H       1  UNL1        0.0271
     36 H          -2.6291    2.7753   -0.6366 H       1  UNL1        0.0268
     37 H          -2.9924    1.4534   -1.7506 H       1  UNL1        0.0268
     38 H           1.4047    0.0361    2.2678 H       1  UNL1        0.0271
     39 H           1.3811   -1.6747    1.8974 H       1  UNL1        0.0271
     40 H          -3.1129    2.0892    1.6953 H       1  UNL1        0.0301
     41 H           0.6577    2.0727    1.5756 H       1  UNL1        0.0235
     42 H          -0.8355    2.8670    1.1177 H       1  UNL1        0.0235
     43 H          -0.7926    1.8194    2.5333 H       1  UNL1        0.0235
     44 H           3.6955   -2.4025   -0.2228 H       1  UNL1        0.0275
     45 H           3.6966   -2.2384    1.5252 H       1  UNL1        0.0275
     46 H           1.7753    2.2085   -2.0990 H       1  UNL1        0.0617
     47 H           4.8982    0.6763    1.8630 H       1  UNL1        0.0238
     48 H           3.3130    1.4347    1.7482 H       1  UNL1        0.0238
     49 H           3.5313   -0.0821    2.6458 H       1  UNL1        0.0238
     50 H          -5.4263    1.3355    1.6070 H       1  UNL1        0.0268
     51 H          -4.8720    1.9052    0.0519 H       1  UNL1        0.0268
     52 H           4.1231    1.7512   -2.3041 H       1  UNL1        0.0617
     53 H           6.1211    0.6240   -1.7424 H       1  UNL1        0.0335
     54 H           6.2362    0.8154   -0.0153 H       1  UNL1        0.0335
     55 H           6.0231   -1.4045    1.4806 H       1  UNL1        0.0290
     56 H           5.8996   -2.9286    0.6388 H       1  UNL1        0.0290
     57 H          -3.0690   -0.9495    2.0900 H       1  UNL1        0.0233
     58 H          -4.0673    0.1131    3.0736 H       1  UNL1        0.0233
     59 H          -2.3497    0.3370    3.1130 H       1  UNL1        0.0233
     60 H           5.8377   -1.7945   -1.5608 H       1  UNL1        0.0596
     61 H          -4.5644   -0.4755   -0.6985 H       1  UNL1        0.0265
     62 H          -5.1746   -1.0129    0.8648 H       1  UNL1        0.0265
     63 H          -6.7099    0.6618   -1.1983 H       1  UNL1        0.0268
     64 H          -7.3397    0.1824    0.3716 H       1  UNL1        0.0268
     65 H           7.8444   -2.2277   -0.5596 H       1  UNL1        0.2098
     66 H          -8.2113   -1.3002   -1.3453 H       1  UNL1        0.0295
     67 H          -6.1161   -2.9114    0.2273 H       1  UNL1        0.0232
     68 H          -7.6534   -3.4760   -0.4218 H       1  UNL1        0.0232
     69 H          -7.6430   -2.3161    0.9125 H       1  UNL1        0.0232
     70 H          -5.3150   -2.1117   -1.9970 H       1  UNL1        0.0232
     71 H          -6.7916   -2.6795   -2.7725 H       1  UNL1        0.0232
     72 H          -6.2957   -0.9956   -2.9698 H       1  UNL1        0.0232
@<TRIPOS>BOND
     1     1    23    1
     2     1    65    1
     3     2     3    1
     4     2     4    1
     5     2     6    1
     6     2    13    1
     7     3     7    1
     8     3     8    1
     9     3    29    1
    10     4     9    1
    11     4    12    1
    12     4    30    1
    13     5     8    1
    14     5    10    1
    15     5    11    1
    16     5    31    1
    17     6    11    1
    18     6    32    1
    19     6    33    1
    20     7     9    1
    21     7    34    1
    22     7    35    1
    23     8    16    2
    24     9    36    1
    25     9    37    1
    26    10    14    1
    27    10    15    1
    28    10    17    1
    29    11    38    1
    30    11    39    1
    31    12    18    1
    32    12    22    1
    33    12    40    1
    34    13    41    1
    35    13    42    1
    36    13    43    1
    37    14    19    2
    38    14    20    1
    39    15    21    1
    40    15    44    1
    41    15    45    1
    42    16    19    1
    43    16    46    1
    44    17    47    1
    45    17    48    1
    46    17    49    1
    47    18    24    1
    48    18    50    1
    49    18    51    1
    50    19    52    1
    51    20    23    1
    52    20    53    1
    53    20    54    1
    54    21    23    1
    55    21    55    1
    56    21    56    1
    57    22    57    1
    58    22    58    1
    59    22    59    1
    60    23    60    1
    61    24    25    1
    62    24    61    1
    63    24    62    1
    64    25    26    1
    65    25    63    1
    66    25    64    1
    67    26    27    1
    68    26    28    1
    69    26    66    1
    70    27    67    1
    71    27    68    1
    72    27    69    1
    73    28    70    1
    74    28    71    1
    75    28    72    1
