@<TRIPOS>MOLECULE
135398634
   16    17     1     0     0
SMALL
bcc


@<TRIPOS>ATOM
      1 O            0.1920     2.6660    -0.0000 o          1 UNL      -0.636500
      2 N           -2.0710     0.6590     0.0010 na         1 UNL      -0.279900
      3 N1           1.5740     0.8030     0.0000 ns         1 UNL      -0.492400
      4 N2           0.7570    -1.4540    -0.0000 nc         1 UNL      -0.692700
      5 N3          -1.7190    -1.5430    -0.0010 nc         1 UNL      -0.645000
      6 N4           3.0550    -1.0100     0.0010 nv         1 UNL      -0.880800
      7 C           -0.7180     0.4880    -0.0000 cd         1 UNL      -0.351200
      8 C1          -0.5240    -0.8730    -0.0000 cc         1 UNL       0.588300
      9 C2           0.3380     1.4490    -0.0000 c          1 UNL       0.747100
     10 C3           1.7480    -0.5920     0.0000 cd         1 UNL       0.645800
     11 C4          -2.6310    -0.5930     0.0010 cd         1 UNL       0.441400
     12 H           -2.5710     1.5390     0.0010 hn         1 UNL       0.322700
     13 H1           2.4080     1.3830     0.0000 hn         1 UNL       0.338500
     14 H2          -3.7010    -0.7390     0.0010 h5         1 UNL       0.068100
     15 H3           3.2910    -1.9960     0.0010 hn         1 UNL       0.412800
     16 H4           3.8220    -0.3470     0.0010 hn         1 UNL       0.412800
@<TRIPOS>BOND
     1     1     9 2   
     2     2     7 1   
     3     2    11 1   
     4     2    12 1   
     5     3     9 1   
     6     3    10 1   
     7     3    13 1   
     8     4     8 1   
     9     4    10 2   
    10     5     8 1   
    11     5    11 2   
    12     6    10 1   
    13     6    15 1   
    14     6    16 1   
    15     7     8 2   
    16     7     9 1   
    17    11    14 1   
@<TRIPOS>SUBSTRUCTURE
     1 UNL         1 TEMP              0 ****  ****    0 ROOT
