@<TRIPOS>MOLECULE
3033
   30    31     1     0     0
SMALL
bcc


@<TRIPOS>ATOM
      1 Cl           1.9540     1.1500    -2.5080 cl         1 UNL      -0.071400
      2 Cl1          1.1380    -1.6390     2.1140 cl         1 UNL      -0.071400
      3 O           -3.2620    -2.9280    -1.0650 oh         1 UNL      -0.603100
      4 O1          -2.7910    -1.9110     0.9090 o          1 UNL      -0.566000
      5 N            0.2680    -0.2050    -0.3990 nu         1 UNL      -0.625000
      6 C           -2.0640     0.5140    -0.3770 ca         1 UNL      -0.134300
      7 C1          -0.7310     0.7180    -0.0190 ca         1 UNL       0.171600
      8 C2          -2.4760    -0.6830    -1.1700 c3         1 UNL      -0.075100
      9 C3           1.6570    -0.2480    -0.1790 ca         1 UNL       0.135600
     10 C4          -3.0380     1.4350     0.0080 ca         1 UNL      -0.089000
     11 C5          -0.3730     1.8430     0.7230 ca         1 UNL      -0.175000
     12 C6          -2.6800     2.5600     0.7510 ca         1 UNL      -0.163000
     13 C7          -1.3470     2.7640     1.1080 ca         1 UNL      -0.090000
     14 C8           2.5350     0.3480    -1.0920 ca         1 UNL      -0.001100
     15 C9           2.1740    -0.8860     0.9530 ca         1 UNL      -0.001100
     16 C10         -2.8480    -1.8750    -0.3120 c          1 UNL       0.641100
     17 C11          3.9120     0.3060    -0.8740 ca         1 UNL      -0.113500
     18 C12          3.5510    -0.9280     1.1710 ca         1 UNL      -0.113500
     19 C13          4.4200    -0.3320     0.2580 ca         1 UNL      -0.128000
     20 H           -1.7090    -0.9790    -1.8930 hc         1 UNL       0.090700
     21 H1          -3.3610    -0.4270    -1.7680 hc         1 UNL       0.090700
     22 H2          -0.0860    -1.1150    -0.6780 hn         1 UNL       0.450800
     23 H3          -4.0810     1.2880    -0.2600 ha         1 UNL       0.134000
     24 H4           0.6570     2.0280     1.0170 ha         1 UNL       0.143000
     25 H5          -3.4380     3.2770     1.0510 ha         1 UNL       0.135000
     26 H6          -1.0680     3.6400     1.6870 ha         1 UNL       0.134000
     27 H7           4.6040     0.7650    -1.5760 ha         1 UNL       0.151500
     28 H8           3.9630    -1.4210     2.0480 ha         1 UNL       0.151500
     29 H9           5.4920    -0.3650     0.4270 ha         1 UNL       0.144000
     30 H10         -3.5020    -3.7010    -0.5100 ho         1 UNL       0.445000
@<TRIPOS>BOND
     1     1    14 1   
     2     2    15 1   
     3     3    16 1   
     4     3    30 1   
     5     4    16 2   
     6     5     7 1   
     7     5     9 1   
     8     5    22 1   
     9     6     7 ar  
    10     6     8 1   
    11     6    10 ar  
    12     7    11 ar  
    13     8    16 1   
    14     8    20 1   
    15     8    21 1   
    16     9    14 ar  
    17     9    15 ar  
    18    10    12 ar  
    19    10    23 1   
    20    11    13 ar  
    21    11    24 1   
    22    12    13 ar  
    23    12    25 1   
    24    13    26 1   
    25    14    17 ar  
    26    15    18 ar  
    27    17    19 ar  
    28    17    27 1   
    29    18    19 ar  
    30    18    28 1   
    31    19    29 1   
@<TRIPOS>SUBSTRUCTURE
     1 UNL         1 TEMP              0 ****  ****    0 ROOT
