@<TRIPOS>MOLECULE
3033
 30 31 0 0 0
SMALL
GASTEIGER

@<TRIPOS>ATOM
      1 CL          1.9541    1.1500   -2.5078 Cl      1  UNL1       -0.0816
      2 CL          1.1377   -1.6392    2.1136 Cl      1  UNL1       -0.0816
      3 O          -3.2620   -2.9284   -1.0647 O.3     1  UNL1       -0.4804
      4 O          -2.7906   -1.9108    0.9092 O.2     1  UNL1       -0.2507
      5 N           0.2679   -0.2051   -0.3990 N.pl3   1  UNL1       -0.3120
      6 C          -2.0640    0.5139   -0.3769 C.ar    1  UNL1       -0.0156
      7 C          -0.7313    0.7178   -0.0192 C.ar    1  UNL1        0.0351
      8 C          -2.4761   -0.6830   -1.1703 C.3     1  UNL1        0.0716
      9 C           1.6571   -0.2482   -0.1795 C.ar    1  UNL1        0.0684
     10 C          -3.0382    1.4350    0.0081 C.ar    1  UNL1       -0.0563
     11 C          -0.3728    1.8429    0.7234 C.ar    1  UNL1       -0.0403
     12 C          -2.6797    2.5600    0.7506 C.ar    1  UNL1       -0.0614
     13 C          -1.3470    2.7640    1.1083 C.ar    1  UNL1       -0.0600
     14 C           2.5353    0.3477   -1.0918 C.ar    1  UNL1        0.0635
     15 C           2.1740   -0.8865    0.9534 C.ar    1  UNL1        0.0635
     16 C          -2.8480   -1.8749   -0.3123 C.2     1  UNL1        0.3091
     17 C           3.9124    0.3058   -0.8739 C.ar    1  UNL1       -0.0415
     18 C           3.5511   -0.9285    1.1713 C.ar    1  UNL1       -0.0415
     19 C           4.4203   -0.3324    0.2576 C.ar    1  UNL1       -0.0589
     20 H          -1.7086   -0.9792   -1.8930 H       1  UNL1        0.0427
     21 H          -3.3614   -0.4266   -1.7676 H       1  UNL1        0.0427
     22 H          -0.0861   -1.1146   -0.6780 H       1  UNL1        0.1522
     23 H          -4.0812    1.2885   -0.2604 H       1  UNL1        0.0621
     24 H           0.6569    2.0278    1.0167 H       1  UNL1        0.0636
     25 H          -3.4382    3.2769    1.0511 H       1  UNL1        0.0618
     26 H          -1.0683    3.6399    1.6868 H       1  UNL1        0.0618
     27 H           4.6037    0.7654   -1.5758 H       1  UNL1        0.0633
     28 H           3.9635   -1.4215    2.0480 H       1  UNL1        0.0633
     29 H           5.4925   -0.3651    0.4274 H       1  UNL1        0.0618
     30 H          -3.5025   -3.7011   -0.5102 H       1  UNL1        0.2951
@<TRIPOS>BOND
     1     1    14    1
     2     2    15    1
     3     3    16    1
     4     3    30    1
     5     4    16    2
     6     5     7    1
     7     5     9    1
     8     5    22    1
     9     6     7   ar
    10     6     8    1
    11     6    10   ar
    12     7    11   ar
    13     8    16    1
    14     8    20    1
    15     8    21    1
    16     9    14   ar
    17     9    15   ar
    18    10    12   ar
    19    10    23    1
    20    11    13   ar
    21    11    24    1
    22    12    13   ar
    23    12    25    1
    24    13    26    1
    25    14    17   ar
    26    15    18   ar
    27    17    19   ar
    28    17    27    1
    29    18    19   ar
    30    18    28    1
    31    19    29    1
