@<TRIPOS>MOLECULE
4091
   20    19     1     0     0
SMALL
bcc


@<TRIPOS>ATOM
      1 N           -1.5160    -0.3600    -0.0790 nh         1 UNL      -0.719600
      2 N1           0.7170     0.2150    -0.8190 ne         1 UNL      -0.856000
      3 N2          -0.6600     1.8740    -0.1620 n2         1 UNL      -0.871100
      4 N3           2.9010    -0.4480    -0.3360 nv         1 UNL      -0.919300
      5 N4           1.5200    -0.0300     1.4350 nv         1 UNL      -0.919300
      6 C           -1.2980    -1.7840    -0.3080 c3         1 UNL       0.161600
      7 C1          -2.7800     0.0050     0.5510 c3         1 UNL       0.161600
      8 C2          -0.5260     0.5930    -0.3450 ce         1 UNL       0.820200
      9 C3           1.6420    -0.0660     0.0630 c2         1 UNL       0.846100
     10 H           -0.6870    -1.9540    -1.2010 h1         1 UNL       0.036200
     11 H1          -2.2430    -2.3140    -0.4670 h1         1 UNL       0.036200
     12 H2          -0.7920    -2.2290     0.5540 h1         1 UNL       0.036200
     13 H3          -3.4060    -0.8700     0.7570 h1         1 UNL       0.036200
     14 H4          -3.3490     0.6740    -0.1020 h1         1 UNL       0.036200
     15 H5          -2.5980     0.5080     1.5070 h1         1 UNL       0.036200
     16 H6          -1.5950     2.0900     0.1920 hn         1 UNL       0.408400
     17 H7           3.6260    -0.6690     0.3370 hn         1 UNL       0.417300
     18 H8           3.1390    -0.5190    -1.3190 hn         1 UNL       0.417300
     19 H9           0.6520     0.2310     1.8890 hn         1 UNL       0.417300
     20 H10          2.3010    -0.2680     2.0370 hn         1 UNL       0.417300
@<TRIPOS>BOND
     1     1     6 1   
     2     1     7 1   
     3     1     8 1   
     4     2     8 1   
     5     2     9 2   
     6     3     8 2   
     7     3    16 1   
     8     4     9 1   
     9     4    17 1   
    10     4    18 1   
    11     5     9 1   
    12     5    19 1   
    13     5    20 1   
    14     6    10 1   
    15     6    11 1   
    16     6    12 1   
    17     7    13 1   
    18     7    14 1   
    19     7    15 1   
@<TRIPOS>SUBSTRUCTURE
     1 UNL         1 TEMP              0 ****  ****    0 ROOT
