@<TRIPOS>MOLECULE
5950
   13    12     1     0     0
SMALL
bcc


@<TRIPOS>ATOM
      1 O            1.4570    -1.0440     0.2680 oh         1 ALA      -0.602100
      2 OXT          1.2490     1.1170    -0.4050 o          1 ALA      -0.549000
      3 N           -1.4110     1.1510     0.1820 n8         1 ALA      -0.902800
      4 CA          -0.7090    -0.1140     0.3940 c3         1 ALA       0.128500
      5 CB          -1.3350    -1.2000    -0.4700 c3         1 ALA      -0.136100
      6 C            0.7470     0.0900     0.0310 c          1 ALA       0.637100
      7 HA          -0.7670    -0.3740     1.4560 h1         1 ALA       0.094700
      8 HB1         -0.8580    -2.1700    -0.2880 hc         1 ALA       0.052033
      9 HB2         -2.4020    -1.3130    -0.2520 hc         1 ALA       0.052033
     10 HB3         -1.2250    -0.9800    -1.5380 hc         1 ALA       0.052033
     11 H1          -2.3920     1.0420     0.4380 hn         1 ALA       0.363800
     12 H2          -1.4070     1.3870    -0.8100 hn         1 ALA       0.363800
     13 H            2.4060    -0.9340     0.0450 ho         1 ALA       0.446000
@<TRIPOS>BOND
     1     1     6 1   
     2     1    13 1   
     3     2     6 2   
     4     3     4 1   
     5     3    11 1   
     6     3    12 1   
     7     4     5 1   
     8     4     6 1   
     9     4     7 1   
    10     5     8 1   
    11     5     9 1   
    12     5    10 1   
@<TRIPOS>SUBSTRUCTURE
     1 ALA         1 TEMP              0 ****  ****    0 ROOT
