@<TRIPOS>MOLECULE
13700
   37    37     1     0     0
SMALL
bcc


@<TRIPOS>ATOM
      1 O           -2.6960    -2.2210    -0.0480 oh         1 UNL      -0.502100
      2 C            2.5170     0.1720     0.2000 c3         1 UNL      -0.079400
      3 C1           1.3240     0.0190    -0.7490 c3         1 UNL      -0.080400
      4 C2           3.8720     0.0140    -0.4930 c3         1 UNL      -0.079400
      5 C3          -0.0600     0.0840    -0.0960 c3         1 UNL      -0.082400
      6 C4           5.0210     0.0870     0.5140 c3         1 UNL      -0.079400
      7 C5          -1.2110    -0.0180    -1.1000 c3         1 UNL      -0.037100
      8 C6           6.3780    -0.0380    -0.1790 c3         1 UNL      -0.080400
      9 C7          -2.5510     0.1420    -0.4260 ca         1 UNL      -0.159300
     10 C8           7.5230     0.0680     0.8150 c3         1 UNL      -0.093100
     11 C9          -3.2220    -0.9690     0.0650 ca         1 UNL       0.129100
     12 C10         -3.0910     1.4140    -0.3090 ca         1 UNL      -0.091000
     13 C11         -4.4600    -0.8040     0.6860 ca         1 UNL      -0.157000
     14 C12         -4.3290     1.5790     0.3120 ca         1 UNL      -0.165000
     15 C13         -5.0140     0.4700     0.8090 ca         1 UNL      -0.099000
     16 H            2.4660     1.1550     0.6840 hc         1 UNL       0.041200
     17 H1           2.4300    -0.5770     0.9960 hc         1 UNL       0.041200
     18 H2           1.4130    -0.9400    -1.2750 hc         1 UNL       0.039700
     19 H3           1.3890     0.8000    -1.5180 hc         1 UNL       0.039700
     20 H4           3.9060    -0.9490    -1.0180 hc         1 UNL       0.039700
     21 H5           3.9880     0.7990    -1.2500 hc         1 UNL       0.039700
     22 H6          -0.1410    -0.7180     0.6480 hc         1 UNL       0.046200
     23 H7          -0.1400     1.0270     0.4600 hc         1 UNL       0.046200
     24 H8           4.9120    -0.7130     1.2570 hc         1 UNL       0.039700
     25 H9           4.9730     1.0400     1.0560 hc         1 UNL       0.039700
     26 H10         -1.1000     0.7740    -1.8540 hc         1 UNL       0.047700
     27 H11         -1.1560    -0.9490    -1.6760 hc         1 UNL       0.047700
     28 H12          6.4410    -1.0000    -0.7020 hc         1 UNL       0.038700
     29 H13          6.4840     0.7490    -0.9340 hc         1 UNL       0.038700
     30 H14          7.4640    -0.7240     1.5670 hc         1 UNL       0.032700
     31 H15          8.4830    -0.0250     0.2980 hc         1 UNL       0.032700
     32 H16          7.5070     1.0340     1.3300 hc         1 UNL       0.032700
     33 H17         -2.5670     2.2860    -0.6900 ha         1 UNL       0.131000
     34 H18         -4.9980    -1.6630     1.0760 ha         1 UNL       0.149000
     35 H19         -4.7600     2.5720     0.4090 ha         1 UNL       0.133000
     36 H20         -5.9770     0.5990     1.2930 ha         1 UNL       0.134000
     37 H21         -1.7430    -2.1820    -0.2240 ho         1 UNL       0.422000
@<TRIPOS>BOND
     1     1    11 1   
     2     1    37 1   
     3     2     3 1   
     4     2     4 1   
     5     2    16 1   
     6     2    17 1   
     7     3     5 1   
     8     3    18 1   
     9     3    19 1   
    10     4     6 1   
    11     4    20 1   
    12     4    21 1   
    13     5     7 1   
    14     5    22 1   
    15     5    23 1   
    16     6     8 1   
    17     6    24 1   
    18     6    25 1   
    19     7     9 1   
    20     7    26 1   
    21     7    27 1   
    22     8    10 1   
    23     8    28 1   
    24     8    29 1   
    25     9    11 ar  
    26     9    12 ar  
    27    10    30 1   
    28    10    31 1   
    29    10    32 1   
    30    11    13 ar  
    31    12    14 ar  
    32    12    33 1   
    33    13    15 ar  
    34    13    34 1   
    35    14    15 ar  
    36    14    35 1   
    37    15    36 1   
@<TRIPOS>SUBSTRUCTURE
     1 UNL         1 TEMP              0 ****  ****    0 ROOT
